geometry optimzed in LAMMPS
_audit_creation_date              2020-12-01 
_audit_creation_method            'lammps2cif' 
_symmetry_space_group_name_H-M    'P1' 
_symmetry_Int_Tables_number       1 
_symmetry_cell_setting            triclinic 
loop_ 
_symmetry_equiv_pos_as_xyz 
  x,y,z 
_cell_length_a                    43.09530002 
_cell_length_b                    38.71696973618672 
_cell_length_c                    78.97959727793565 
_cell_angle_alpha                 90.79563094997708 
_cell_angle_beta                  91.02638883514737 
_cell_angle_gamma                 121.30934932750384 
loop_ 
_atom_site_label 
_atom_site_type_symbol 
_atom_site_fract_x 
_atom_site_fract_y 
_atom_site_fract_z 
_atom_site_charge 
C1          C  0.12557107  0.25283665  0.08168690     0.81200
N2          N  0.12387445  0.22435016  0.07083817    -0.77100
C3          C  0.09147924  0.19565548  0.06376537     0.83700
N4          N  0.06075299  0.19519450  0.06767187    -0.77000
C5          C  0.52624481  0.18228662  0.07627769     0.83800
N6          N  0.09483289  0.25274235  0.08527264    -0.78700
C7          C  0.41554906  0.35888441  0.06694254     0.81200
N8          N  0.41189296  0.32190407  0.06685736    -0.77100
C9          C  0.39445127  0.29590366  0.07946818     0.83700
N10         N  0.37992599  0.30671707  0.09202149    -0.77000
C11         C  0.38309958  0.34351064  0.09223344     0.83800
N12         N  0.40106970  0.36974124  0.07965202    -0.78700
C13         C  0.19906863  0.02634333  0.07428105     0.81200
N14         N  0.22865628  0.49512566  0.08019425    -0.77100
C15         C  0.25707099  0.49851016  0.08957321     0.83700
N16         N  0.25920163  0.02649016  0.08544322    -0.77000
C17         C  0.26278652  0.05759899  0.07625857     0.83800
N18         N  0.23279654  0.05728244  0.07078979    -0.78700
C19         C  0.43054170  0.16243929  0.06804947     0.04100
C20         C  0.39631629  0.12787220  0.07043769    -0.12000
C21         C  0.36567266  0.13118479  0.07244477     0.01600
C22         C  0.36975253  0.16967479  0.07212613    -0.10500
C23         C  0.40372734  0.20433553  0.06947827     0.04100
C24         C  0.43384445  0.20043906  0.06714233    -0.10000
H25         H  0.39369871  0.09852570  0.07113770     0.09700
H26         H  0.34667315  0.17297641  0.07412596     0.07300
H27         H  0.46007586  0.22722498  0.06501924     0.07100
C28         C  0.39631763  0.97070544  0.89921109     0.81200
N29         N  0.37079303  0.45188247  0.89368515    -0.77100
C30         C  0.36696114  0.42541631  0.90571929     0.83700
N31         N  0.39475711  0.43535255  0.91682434    -0.77000
C32         C  0.42627928  0.47164537  0.91611543     0.83800
N33         N  0.42674116  0.97962833  0.90837883    -0.78700
C34         C  0.21213986  0.11411190  0.92213138     0.81200
N35         N  0.21688293  0.15043882  0.91809980    -0.77100
C36         C  0.24892257  0.17991033  0.91201854     0.83700
N37         N  0.27611996  0.17270982  0.90981996    -0.77000
C38         C  0.27143259  0.13620822  0.91341709     0.83800
N39         N  0.23937059  0.10671721  0.91962046    -0.78700
C40         C  0.20151195  0.30393320  0.89875748     0.04100
C41         C  0.19978301  0.26749110  0.90160052    -0.12000
C42         C  0.23154322  0.26645379  0.90397564     0.01600
C43         C  0.26549061  0.30275641  0.90323689    -0.10500
C44         C  0.26740019  0.33946205  0.89999733     0.04100
C45         C  0.23529385  0.33968498  0.89761603    -0.10000
H46         H  0.17345855  0.23995317  0.90250855     0.09700
H47         H  0.29032728  0.30273611  0.90510194     0.07300
H48         H  0.23659675  0.36787512  0.89513001     0.07100
C49         C  0.06784817  0.29994766  0.90051405     0.81200
N50         N  0.06390408  0.32067907  0.91332756    -0.77100
C51         C  0.09257290  0.34567608  0.92368914     0.83700
N52         N  0.12533391  0.34970675  0.92134738    -0.77000
C53         C  0.12952055  0.32918199  0.90844498     0.83800
N54         N  0.10072788  0.30425267  0.89803332    -0.78700
Zr55       Zr  0.05733706  0.46486807  0.03382696     2.17500
O56         O  0.04386777  0.41812353  0.05686377    -0.50300
O57         O  0.05188806  0.06262046  0.04346868    -0.73500
O58         O  0.11188677  0.47523695  0.04846660    -0.80300
O59         O  0.47066864  0.44181564  0.02621147    -0.82100
O60         O  0.15604622  0.05895193  0.02694277    -0.77700
O61         O  0.51513487  0.47534607  0.04650808    -0.89300
O62         O  0.06570311  0.11003246  0.02365139    -0.75300
O63         O  0.09369649  0.06388237  0.01451581    -0.84800
O64         O  0.02665036  0.49300195  0.01955663    -0.84500
O65         O  0.08646657  0.44191621  0.01509655    -0.71200
O66         O  0.01521889  0.41396835  0.01388615    -0.83400
Zr67       Zr  0.06040545  0.48141549  0.96700196     2.26400
Zr68       Zr  0.12881763  0.04387991  0.99867451     2.06300
Zr69       Zr  0.49565100  0.47046702  0.99884465     2.10000
Zr70       Zr  0.05614251  0.07670529  0.99649087     1.78800
O71         O  0.43708724  0.40752942  0.99608125    -0.92200
O72         O  0.10480998  0.14672084  0.99348907    -0.40000
O73         O  0.02009966  0.01816826  0.97885620    -0.76600
O74         O  0.09347008  0.06018613  0.98038854    -0.95300
O75         O  0.09041214  0.45249445  0.98132713    -0.88600
O76         O  0.01443478  0.42131710  0.97982276    -0.91400
C77         C  0.06000544  0.09791936  0.03887971     1.02300
C78         C  0.48230325  0.44964444  0.04173794     1.15300
C79         C  0.14411239  0.04560441  0.04164976     1.06000
O80         O  0.17514277  0.11559059  0.99855130    -0.93600
O81         O  0.15944820  0.05401639  0.97221505    -0.89300
O82         O  0.11715438  0.03468710  0.95081401    -0.82500
C83         C  0.15001156  0.05019258  0.95650946     1.12700
O84         O  0.02423094  0.33914273  0.01473137    -0.95600
Zr85       Zr  0.04477963  0.39339805  0.99452386     1.88900
O86         O  0.05285491  0.42638154  0.94893253    -0.72200
O87         O  0.16651162  0.46944596  0.99829537    -0.51500
O88         O  0.08739123  0.37030106  0.99802225    -0.96200
O89         O  0.98770409  0.33226615  0.98602661    -0.53400
O90         O  0.05738294  0.38237533  0.96608667    -0.72700
C91         C  0.05693298  0.39639965  0.95156444     0.99600
O92         O  0.05811801  0.03192412  0.93634894    -0.61500
O93         O  0.46358042  0.50604730  0.00379496    -0.56300
O94         O  0.00600959  0.47386005  0.95280196    -0.93000
O95         O  0.46670460  0.46055094  0.97116240    -0.91500
O96         O  0.00323525  0.08350965  0.99859731    -0.91800
O97         O  0.05291240  0.10978959  0.97107314    -0.90600
C98         C  0.97290552  0.45937665  0.95708499     1.18500
H99         H  0.01317634  0.49931767  0.02734521     0.34400
H100        H  0.10913838  0.08273375  0.97339730     0.45300
H101        H  0.99714947  0.40248104  0.97140641     0.38800
H102        H  0.09770453  0.42976139  0.02135437     0.35300
H103        H  0.09546374  0.16304943  0.99848614     0.27000
H104        H  0.19543848  0.04561576  0.00400365     0.33000
H105        H  0.10731772  0.38698741  0.99030143     0.38900
H106        H  0.01330947  0.11304819  0.99913488     0.33400
H107        H  0.44986372  0.50253322  0.99307508     0.32200
H108        H  0.41893986  0.41591650  0.99607934     0.33900
H109        H  0.98605969  0.33287308  0.97353079     0.32900
H110        H  0.04219516  0.08813771  0.96216598     0.36900
H111        H  0.07707850  0.06086418  0.93799415     0.29600
H112        H  0.05556157  0.43531270  0.06717025     0.33800
H113        H  0.02345413  0.31624494  0.00856254     0.36700
H114        H  0.44470076  0.48929272  0.01195838     0.29300
H115        H  0.06802301  0.02111842  0.92799311     0.42200
H116        H  0.17185337  0.12499097  0.98744311     0.32200
H117        H  0.12421689  0.15040003  0.00155511     0.39900
H118        H  0.96857789  0.33696544  0.99009679     0.31700
H119        H  0.19210290  0.49139346  0.00035165     0.31800
H120        H  0.05777058  0.40476584  0.05463354     0.32000
C121        C  0.40827642  0.33477106  0.77249958     0.81200
N122        N  0.38243462  0.32632190  0.76021008    -0.77100
C123        C  0.38794223  0.35512158  0.74887725     0.83700
N124        N  0.41919398  0.39176271  0.74990035    -0.77000
C125        C  0.44479141  0.40017336  0.76208993     0.83800
N126        N  0.43914147  0.37171030  0.77338940    -0.78700
C127        C  0.23154167  0.03255410  0.76024824     0.81200
N128        N  0.19972528  0.03103930  0.76252213    -0.77100
C129        C  0.17053750  0.00738721  0.75210981     0.83700
N130        N  0.17329901  0.98529513  0.73939875    -0.77000
C131        C  0.20504310  0.98667729  0.73717415     0.83800
N132        N  0.23411274  0.01041144  0.74757852    -0.78700
C133        C  0.06857745  0.20591984  0.72750225     0.81200
N134        N  0.06835058  0.17312068  0.73364155    -0.77100
C135        C  0.04260807  0.14859374  0.74460276     0.83700
N136        N  0.01732789  0.15711950  0.74945422    -0.77000
C137        C  0.01765651  0.19003057  0.74364416     0.83800
N138        N  0.04333009  0.21459910  0.73264492    -0.78700
C139        C  0.10001900  0.03490269  0.76290530     0.04100
C140        C  0.06700480  0.99959077  0.76638398    -0.12000
C141        C  0.03421570  0.99873083  0.76476216     0.01600
C142        C  0.03490958  0.03411720  0.76019598    -0.10500
C143        C  0.06783391  0.06976664  0.75675307     0.04100
C144        C  0.10032206  0.06989461  0.75834716    -0.10000
H145        H  0.06692578  0.46657171  0.76147401     0.09700
H146        H  0.49876474  0.03156199  0.73093459     0.07300
H147        H  0.12583193  0.09684130  0.75537388     0.07100
Zr148      Zr  0.38594168  0.15017357  0.80264196     2.17500
O149        O  0.38085007  0.11637138  0.77552036    -0.50300
O150        O  0.38175053  0.20440419  0.78985903    -0.73500
O151        O  0.32373867  0.10996998  0.79195148    -0.80300
O152        O  0.48756802  0.19401507  0.80375173    -0.82100
O153        O  0.28549652  0.09121250  0.81398860    -0.77700
O154        O  0.43952268  0.17508317  0.78552069    -0.89300
O155        O  0.39253483  0.25049819  0.81078500    -0.75300
O156        O  0.35316067  0.16598948  0.82202398    -0.84800
O157        O  0.43015486  0.20889603  0.81832505    -0.84500
O158        O  0.35397157  0.09130042  0.81967620    -0.74800
O159        O  0.42488936  0.13127331  0.81623778    -0.83400
Zr160      Zr  0.40441332  0.14851423  0.86952497     2.26400
Zr161      Zr  0.32253033  0.10855201  0.83960092     2.06300
Zr162      Zr  0.46800415  0.18977660  0.83254672     2.10000
Zr163      Zr  0.39736337  0.22422211  0.83780795     1.78800
O164        O  0.51401974  0.17121857  0.83211743    -0.92200
O165        O  0.34640830  0.23428077  0.84074777    -0.40000
O166        O  0.43628438  0.20663819  0.85226688    -0.76600
O167        O  0.36535823  0.16772103  0.85591939    -0.95300
O168        O  0.36070124  0.08952824  0.85380741    -0.88600
O169        O  0.43728267  0.13264174  0.85019433    -0.91400
C170        C  0.38632632  0.23819748  0.79521910     1.02300
C171        C  0.47318934  0.18803189  0.78882757     1.15300
C172        C  0.29198003  0.09259793  0.79819714     1.06000
O173        O  0.28069513  0.13211974  0.84416014    -0.93600
O174        O  0.30014495  0.09182344  0.86789257    -0.89300
O175        O  0.34950272  0.12572213  0.88566980    -0.82500
C176        C  0.31505318  0.10482821  0.88259332     1.12700
O177        O  0.38459262  0.03035749  0.80982298    -0.95600
Zr178      Zr  0.39354224  0.07453857  0.83411698     1.88900
O179        O  0.41101090  0.09496514  0.88141617    -0.72200
O180        O  0.27488085  0.03725012  0.83961017    -0.51500
O181        O  0.34066462  0.00630182  0.83547499    -0.96200
O182        O  0.44730812  0.07053621  0.82909637    -0.53400
O183        O  0.40074860  0.04880321  0.86061040    -0.72700
C184        C  0.40774192  0.06180102  0.87604677     0.99600
O185        O  0.41622318  0.17516585  0.89865123    -0.61500
O186        O  0.51148421  0.26149094  0.82910920    -0.56300
O187        O  0.46510496  0.19904451  0.88013950    -0.93000
O188        O  0.50401001  0.21489952  0.85850896    -0.91500
O189        O  0.45063696  0.29232341  0.83780279    -0.91800
O190        O  0.40569819  0.26564277  0.86295459    -0.90600
C191        C  0.49707979  0.21706182  0.87403574     1.18500
H192        H  0.44433558  0.23123045  0.81100493     0.34400
H193        H  0.35320318  0.17479539  0.86420664     0.45300
H194        H  0.45476727  0.12825712  0.85605039     0.38800
H195        H  0.33687528  0.06810424  0.81276242     0.35300
H196        H  0.35616146  0.26275975  0.83767320     0.27000
H197        H  0.25183341  0.03706174  0.83876893     0.33000
H198        H  0.32674998  0.00741630  0.84508610     0.38900
H199        H  0.44175545  0.30921068  0.83298297     0.33400
H200        H  0.04134056  0.29609313  0.82008645     0.32200
H201        H  0.04619160  0.22963083  0.81954162     0.33900
H202        H  0.46184361  0.07983799  0.83983645     0.32900
H203        H  0.41926744  0.25888834  0.87116528     0.36900
H204        H  0.40315628  0.18984329  0.89978890     0.29600
H205        H  0.36809652  0.12492894  0.76765028     0.33800
H206        H  0.38797140  0.00871698  0.81430201     0.36700
H207        H  0.53555247  0.26470108  0.83129952     0.29300
H208        H  0.40339528  0.15147037  0.90597471     0.42200
H209        H  0.29299681  0.15438693  0.85274371     0.32200
H210        H  0.32934754  0.21820984  0.83126645     0.39900
H211        H  0.46163849  0.09226052  0.82106371     0.31700
H212        H  0.27641495  0.02577284  0.82859545     0.31800
H213        H  0.36347824  0.08724226  0.77722904     0.32000
C214        C  0.26049696  0.17149479  0.55970717     0.81200
N215        N  0.25539558  0.18813332  0.57384723    -0.77100
C216        C  0.28248776  0.20692522  0.58583607     0.83700
N217        N  0.31443570  0.20867567  0.58371551    -0.77000
C218        C  0.31959807  0.19218128  0.56960090     0.83800
N219        N  0.29264907  0.17385594  0.55757463    -0.78700
C220        C  0.12799663  0.36408830  0.59051760     0.81200
N221        N  0.13553402  0.39727211  0.58158531    -0.77100
C222        C  0.11057798  0.39486731  0.56997794     0.83700
N223        N  0.07806628  0.35949066  0.56758003    -0.77000
C224        C  0.07069388  0.32679866  0.57674258     0.83800
N225        N  0.09569131  0.32945247  0.58796320    -0.78700
C226        C  0.42063808  0.00180208  0.60171770     0.81200
N227        N  0.40719658  0.02373070  0.59492181    -0.77100
C228        C  0.42600971  0.05173949  0.58325204     0.83700
N229        N  0.95821278  0.07194314  0.58194668    -0.77000
C230        C  0.47262523  0.03705803  0.58529700     0.83800
N231        N  0.45343171  0.00832302  0.59685185    -0.78700
C232        C  0.39070857  0.16756397  0.55617185     0.04100
C233        C  0.39108206  0.13196904  0.55861083    -0.12000
C234        C  0.42380280  0.13254899  0.55766447     0.01600
C235        C  0.45567356  0.16834302  0.55374789    -0.10500
C236        C  0.45592562  0.20445472  0.55212371     0.04100
C237        C  0.42319421  0.20377651  0.55294201    -0.10000
H238        H  0.36623477  0.10428137  0.56159993     0.09700
H239        H  0.99750415  0.20584000  0.56889586     0.07300
H240        H  0.42314506  0.23156906  0.55156409     0.07100
Zr241      Zr  0.25035275  0.33201298  0.69901343     2.17500
O242        O  0.24222614  0.29525905  0.72504462    -0.50300
O243        O  0.24791028  0.38355337  0.71643947    -0.73500
O244        O  0.30728942  0.34902369  0.71347716    -0.80300
O245        O  0.14778864  0.26677661  0.68921130    -0.82100
O246        O  0.35345884  0.38379841  0.69541238    -0.77700
O247        O  0.19129892  0.28178651  0.70955672    -0.89300
O248        O  0.23855727  0.42349961  0.69888001    -0.75300
O249        O  0.29023543  0.39523251  0.68642514    -0.84800
O250        O  0.21210934  0.34883341  0.68368182    -0.84500
O251        O  0.28802850  0.31934347  0.68081898    -0.71200
O252        O  0.21599167  0.27738666  0.67878532    -0.83400
Zr253      Zr  0.25521171  0.34667734  0.63225901     2.26400
Zr254      Zr  0.32711088  0.38295861  0.66780425     2.06300
Zr255      Zr  0.17880372  0.29549005  0.66315337     2.10000
Zr256      Zr  0.25181922  0.41146064  0.67084466     1.78800
O257        O  0.14074371  0.22510383  0.65370444    -0.92200
O258        O  0.30280262  0.47842284  0.67899390    -0.40000
O259        O  0.21760895  0.35881325  0.65028810    -0.76600
O260        O  0.28976663  0.40150229  0.65245659    -0.95300
O261        O  0.29354129  0.32949250  0.64722882    -0.88600
O262        O  0.21526302  0.28313119  0.64453312    -0.91400
C263        C  0.24060703  0.41123859  0.71356617     1.02300
C264        C  0.15807686  0.26421740  0.70423817     1.15300
C265        C  0.34104314  0.36827256  0.70981891     1.06000
O266        O  0.37158187  0.45373802  0.67463058    -0.93600
O267        O  0.35762937  0.41701705  0.64204246    -0.89300
O268        O  0.31302155  0.39847903  0.62187427    -0.82500
C269        C  0.34615614  0.41916685  0.62717470     1.12700
O270        O  0.25146660  0.22323324  0.68262818    -0.95600
Zr271      Zr  0.25360976  0.26677963  0.66007545     1.88900
O272        O  0.25063634  0.29200998  0.61465975    -0.72200
O273        O  0.37370370  0.36631976  0.66333400    -0.51500
O274        O  0.30623287  0.25945610  0.65768438    -0.96200
O275        O  0.20221351  0.19787727  0.65571696    -0.53400
O276        O  0.25854604  0.24959300  0.63120281    -0.72700
C277        C  0.25508571  0.26210560  0.61678185     0.99600
O278        O  0.26145217  0.36742051  0.60282441    -0.61500
O279        O  0.12484557  0.29857110  0.66875239    -0.56300
O280        O  0.20263848  0.34747459  0.62114586    -0.93000
O281        O  0.15453650  0.30562006  0.63700318    -0.91500
O282        O  0.19986762  0.41919254  0.66584332    -0.91800
O283        O  0.26169939  0.46252633  0.65040068    -0.90600
C284        C  0.16867824  0.32823701  0.62426144     1.18500
H285        H  0.19509732  0.35042771  0.69095266     0.34400
H286        H  0.30418815  0.42730155  0.64722895     0.45300
H287        H  0.20018698  0.26272883  0.63604361     0.38800
H288        H  0.30198228  0.31067680  0.68716706     0.35300
H289        H  0.28313666  0.00716771  0.67545210     0.27000
H290        H  0.37059775  0.35747275  0.65127871     0.33000
H291        H  0.32384416  0.27808336  0.66650174     0.38900
H292        H  0.17979529  0.39660040  0.67186576     0.33400
H293        H  0.12953574  0.32419270  0.66385278     0.32200
H294        H  0.13727589  0.20940454  0.66402643     0.33900
H295        H  0.21322822  0.18183414  0.65254068     0.32900
H296        H  0.25144419  0.44716710  0.63956125     0.36900
H297        H  0.24067910  0.34476021  0.59643897     0.29600
H298        H  0.25647213  0.31588331  0.73406081     0.33800
H299        H  0.25848673  0.20496593  0.67741612     0.36700
H300        H  0.10532451  0.27700980  0.66140330     0.29300
H301        H  0.25671834  0.38985855  0.60255305     0.42200
H302        H  0.36822515  0.45752044  0.68673972     0.32200
H303        H  0.31292534  0.47458623  0.68966414     0.39900
H304        H  0.18968027  0.19835215  0.64518015     0.31700
H305        H  0.39687813  0.39273229  0.66390225     0.31800
H306        H  0.25487384  0.28025224  0.72340348     0.32000
C307        C  0.40145841  0.39258337  0.43180228     0.81200
N308        N  0.39411936  0.35888417  0.42292878    -0.77100
C309        C  0.36502062  0.34059887  0.41200985     0.83700
N310        N  0.34281636  0.35540363  0.41040942    -0.77000
C311        C  0.34954603  0.38849751  0.41963873     0.83800
N312        N  0.37921815  0.40747735  0.43013056    -0.78700
C313        C  0.53023071  0.23234049  0.43162931     0.81200
N314        N  0.52703012  0.20404483  0.44267598    -0.77100
C315        C  0.06123611  0.22604530  0.44832509     0.83700
N316        N  0.09335793  0.26160630  0.44751584    -0.77000
C317        C  0.09813564  0.28824076  0.43537554     0.83800
N318        N  0.07075750  0.27925794  0.42411198    -0.78700
C319        C  0.20576904  0.04114953  0.39645441     0.81200
N320        N  0.20754690  0.00744494  0.39849073    -0.77100
C321        C  0.20202342  0.49593660  0.40550190     0.83700
N322        N  0.17346696  0.49465186  0.41284038    -0.77000
C323        C  0.14888597  0.00923574  0.40936212     0.83800
N324        N  0.17649919  0.04222056  0.40197203    -0.78700
C325        C  0.25918060  0.38264932  0.42052279     0.04100
C326        C  0.26228773  0.41860234  0.41497897    -0.12000
C327        C  0.23432543  0.42595470  0.41788950     0.01600
C328        C  0.20454059  0.39848127  0.42730434    -0.10500
C329        C  0.20003434  0.36139991  0.43185162     0.04100
C330        C  0.22780678  0.35388134  0.42866032    -0.10000
H331        H  0.28565551  0.43999062  0.40794377     0.09700
H332        H  0.18426836  0.40560479  0.43077013     0.07300
H333        H  0.22476064  0.32535009  0.43222864     0.07100
Zr334      Zr  0.07751100  0.02891079  0.52973383     2.17500
O335        O  0.06476937  0.50264804  0.56222211    -0.50300
O336        O  0.13620636  0.07777306  0.54291742    -0.73500
O337        O  0.10249395  0.48372336  0.54200503    -0.80300
O338        O  0.03491358  0.09224623  0.53572651    -0.82100
O339        O  0.10764237  0.45490028  0.51780454    -0.77700
O340        O  0.04299950  0.04533565  0.54875582    -0.89300
O341        O  0.17496296  0.11486105  0.52238919    -0.75300
O342        O  0.11650615  0.03205771  0.50804573    -0.84800
O343        O  0.10159989  0.09416664  0.51786734    -0.84500
O344        O  0.05475508  0.47635345  0.51475121    -0.71200
O345        O  0.02661014  0.03098244  0.51846610    -0.83400
Zr346      Zr  0.05238583  0.04431932  0.46490524     2.26400
Zr347      Zr  0.07831291  0.97816637  0.48818817     2.06300
Zr348      Zr  0.05088930  0.09559201  0.50619924     2.10000
Zr349      Zr  0.14011630  0.09694621  0.49606798     1.78800
O350        O  0.50044650  0.08352280  0.51398638    -0.92200
O351        O  0.19014156  0.08643804  0.49056825    -0.40000
O352        O  0.09009510  0.10003625  0.48416464    -0.76600
O353        O  0.10425549  0.04345847  0.47607406    -0.95300
O354        O  0.02732775  0.97956232  0.47691642    -0.88600
O355        O  0.01317416  0.04165727  0.48643075    -0.91400
C356        C  0.16748357  0.10509893  0.53786023     1.02300
C357        C  0.03208638  0.07048930  0.54841752     1.15300
C358        C  0.10749336  0.45798615  0.53397889     1.06000
O359        O  0.13205146  0.97368307  0.48439827    -0.93600
O360        O  0.08463274  0.97214565  0.45784699    -0.89300
O361        O  0.07565438  0.01758826  0.44400556    -0.82500
C362        C  0.08469841  0.99083872  0.44450449     1.12700
O363        O  0.46620490  0.43125074  0.52473841    -0.95600
Zr364      Zr  0.00241047  0.47125123  0.50116183     1.88900
O365        O  0.99341642  0.99482777  0.45230930    -0.72200
O366        O  0.06569998  0.41797775  0.48639360    -0.51500
O367        O  0.98193371  0.40006820  0.49662704    -0.96200
O368        O  0.44588120  0.47191633  0.50419072    -0.53400
O369        O  0.47387365  0.45388560  0.47307507    -0.72700
C370        C  0.98059639  0.46512229  0.45839148     0.99600
O371        O  0.07343848  0.07560155  0.43752548    -0.61500
O372        O  0.09192386  0.16504404  0.51629415    -0.56300
O373        O  0.03884229  0.09644343  0.45880628    -0.93000
O374        O  0.04809417  0.13399301  0.48283858    -0.91500
O375        O  0.16743024  0.16996379  0.49859210    -0.91800
O376        O  0.17360095  0.13282713  0.47129300    -0.90600
C377        C  0.04183992  0.12705054  0.46682816     1.18500
H378        H  0.11408239  0.11595057  0.52617902     0.34400
H379        H  0.12094183  0.04681146  0.46736440     0.45300
H380        H  0.99388316  0.04485747  0.48183782     0.38800
H381        H  0.04688680  0.45119552  0.52029806     0.35300
H382        H  0.21236906  0.11266680  0.49361663     0.27000
H383        H  0.08364381  0.40937374  0.48724128     0.33000
H384        H  0.48481325  0.39672742  0.48474544     0.38900
H385        H  0.16922570  0.17605607  0.51090941     0.33400
H386        H  0.10311910  0.18037387  0.50596852     0.32200
H387        H  0.48768325  0.06095672  0.52185951     0.33900
H388        H  0.44155603  0.48098108  0.49321630     0.32900
H389        H  0.15493147  0.13173749  0.46342913     0.36900
H390        H  0.05165064  0.07161218  0.43125468     0.29600
H391        H  0.08684651  0.50789307  0.56862205     0.33800
H392        H  0.44244098  0.41013028  0.51971581     0.36700
H393        H  0.07579925  0.17460577  0.52005733     0.29300
H394        H  0.08876551  0.10510321  0.43987727     0.42200
H395        H  0.15027638  0.00019943  0.47988665     0.32200
H396        H  0.18882170  0.06799547  0.49946899     0.39900
H397        H  0.45258428  0.49475363  0.51222345     0.31700
H398        H  0.04934522  0.40473561  0.49592211     0.31800
H399        H  0.05027437  0.47300014  0.56011809     0.32000
C400        C  0.36775709  0.48761504  0.25692367     0.81200
N401        N  0.39025590  0.47284629  0.25779943    -0.77100
C402        C  0.41918840  0.48963950  0.26879342     0.83700
N403        N  0.45124645  0.05821519  0.26387434    -0.77000
C404        C  0.42002367  0.05866430  0.26218854     0.83800
N405        N  0.37451700  0.51972155  0.26697461    -0.78700
C406        C  0.26953841  0.16606551  0.25903885     0.81200
N407        N  0.27287841  0.19661908  0.24937714    -0.77100
C408        C  0.24283677  0.19278539  0.24140812     0.83700
N409        N  0.20979185  0.15882715  0.24332867    -0.77000
C410        C  0.20669546  0.12825161  0.25274124     0.83800
N411        N  0.23648953  0.13212564  0.26045663    -0.78700
C412        C  0.05866988  0.33192806  0.26177787     0.81200
N413        N  0.07865727  0.32349397  0.25120316    -0.77100
C414        C  0.10435563  0.35311159  0.24157768     0.83700
N415        N  0.10959471  0.39081108  0.24249250    -0.77000
C416        C  0.08967702  0.39941932  0.25281961     0.83800
N417        N  0.06429296  0.36994090  0.26254493    -0.78700
C418        C  0.04713167  0.52949507  0.25845706     0.04100
C419        C  0.04565317  0.49267756  0.26029772    -0.12000
C420        C  0.07679659  0.49036460  0.25855013     0.01600
C421        C  0.11006566  0.52588496  0.25526222    -0.10500
C422        C  0.10452056  0.04950360  0.25406417     0.04100
C423        C  0.07366460  0.05228717  0.25557651    -0.10000
H424        H  0.02007509  0.46558950  0.26303147     0.09700
H425        H  0.13429429  0.52452737  0.25391870     0.07300
H426        H  0.07595371  0.08135970  0.25421046     0.07100
Zr427      Zr  0.23096159  0.33433329  0.20091290     2.17500
O428        O  0.18616858  0.28764485  0.22055981    -0.50300
O429        O  0.27148039  0.37957364  0.22339482    -0.73500
O430        O  0.24895729  0.29046765  0.21388147    -0.80300
O431        O  0.17354634  0.38053632  0.19166909    -0.82100
O432        O  0.29178662  0.28907281  0.19795621    -0.77700
O433        O  0.18551750  0.34739150  0.21194739    -0.89300
O434        O  0.31392066  0.43750185  0.21121591    -0.75300
O435        O  0.29195393  0.36375129  0.19214353    -0.84800
O436        O  0.24786381  0.39872206  0.18987143    -0.84500
O437        O  0.22963419  0.28746390  0.18019535    -0.71200
O438        O  0.18858138  0.32130353  0.17799802    -0.83400
Zr439      Zr  0.26623998  0.36792944  0.13676423     2.26400
Zr440      Zr  0.29108350  0.31831620  0.17101125     2.06300
Zr441      Zr  0.20699081  0.38583185  0.16640937     2.10000
Zr442      Zr  0.30832813  0.42734651  0.18078866     1.78800
O443        O  0.14436736  0.35742077  0.15642435    -0.92200
O444        O  0.36919544  0.44173279  0.18801567    -0.40000
O445        O  0.26808513  0.41541322  0.15720734    -0.76600
O446        O  0.30910902  0.38286577  0.15963686    -0.95300
O447        O  0.24916309  0.30385175  0.14791115    -0.88600
O448        O  0.20540154  0.33965254  0.14560182    -0.91400
C449        C  0.29916469  0.41567559  0.22409390     1.02300
C450        C  0.16928760  0.36513069  0.20636048     1.15300
C451        C  0.27194966  0.27955542  0.21101547     1.06000
O452        O  0.35484324  0.34630152  0.17886910    -0.93600
O453        O  0.32274043  0.32065821  0.14537271    -0.89300
O454        O  0.31048334  0.35382957  0.12529637    -0.82500
C455        C  0.32650430  0.33570398  0.13062038     1.12700
O456        O  0.14134593  0.22648187  0.17493639    -0.95600
Zr457      Zr  0.18864034  0.27603667  0.15711452     1.88900
O458        O  0.22567562  0.32128782  0.11455507    -0.72200
O459        O  0.27918316  0.25050089  0.16506281    -0.51500
O460        O  0.18297527  0.21017305  0.15514394    -0.96200
O461        O  0.12810292  0.25982062  0.14786264    -0.53400
O462        O  0.18531275  0.26253495  0.12700789    -0.72700
C463        C  0.19901251  0.28451283  0.11409163     0.99600
O464        O  0.31164762  0.41467614  0.11736769    -0.61500
O465        O  0.21716652  0.45303102  0.17206632    -0.56300
O466        O  0.24827011  0.41091263  0.12340975    -0.93000
O467        O  0.21116677  0.42069539  0.14024788    -0.91500
O468        O  0.30894533  0.49021194  0.18485280    -0.91800
O469        O  0.35460636  0.48422577  0.16524888    -0.90600
C470        C  0.22862925  0.42611294  0.12655806     1.18500
H471        H  0.24643366  0.41597390  0.19838012     0.34400
H472        H  0.33337756  0.39509356  0.15537664     0.45300
H473        H  0.18944404  0.33679285  0.13625923     0.38800
H474        H  0.22187034  0.26159052  0.18507759     0.35300
H475        H  0.37976839  0.46576653  0.19575313     0.27000
H476        H  0.29918757  0.24962434  0.17099675     0.33000
H477        H  0.20330438  0.21446510  0.14802880     0.38900
H478        H  0.32204959  0.50184917  0.19582600     0.33400
H479        H  0.19253119  0.44889809  0.17266271     0.32200
H480        H  0.13799882  0.37745420  0.16012920     0.33900
H481        H  0.11630612  0.23191052  0.14306076     0.32900
H482        H  0.36404526  0.47221324  0.15723364     0.36900
H483        H  0.29868789  0.40982008  0.10629474     0.29600
H484        H  0.19952252  0.29248270  0.23151842     0.33800
H485        H  0.14709442  0.23967189  0.18633522     0.36700
H486        H  0.22708317  0.46010912  0.18384288     0.29300
H487        H  0.31771950  0.44201036  0.12120662     0.42200
H488        H  0.36138812  0.32784921  0.17341703     0.32200
H489        H  0.36533869  0.41938159  0.19535323     0.39900
H490        H  0.13176017  0.27669714  0.13792576     0.31700
H491        H  0.25728612  0.23234238  0.17149032     0.31800
H492        H  0.17990815  0.26027401  0.21667644     0.32000
Zr493      Zr  0.40697368  0.19662222  0.31101636     2.17500
O494        O  0.40689070  0.22886660  0.28466844    -0.50300
O495        O  0.41458829  0.14613335  0.29600238    -0.73500
O496        O  0.46725227  0.24343310  0.30117395    -0.80300
O497        O  0.30538120  0.13519364  0.30990895    -0.82100
O498        O  0.00676156  0.28384557  0.31548559    -0.77700
O499        O  0.35335069  0.17491575  0.29346036    -0.89300
O500        O  0.43068695  0.11580534  0.31577120    -0.75300
O501        O  0.44737864  0.18919730  0.32927737    -0.84800
O502        O  0.37036481  0.13312719  0.32398263    -0.84500
O503        O  0.43178998  0.25382991  0.33043644    -0.71200
O504        O  0.36162229  0.20251141  0.32571669    -0.83400
Zr505      Zr  0.39089327  0.18535423  0.37750564     2.26400
Zr506      Zr  0.47132391  0.24491695  0.34916719     2.06300
Zr507      Zr  0.32599562  0.13943951  0.33910465     2.10000
Zr508      Zr  0.41089457  0.12621089  0.34251756     1.78800
O509        O  0.27217238  0.14491001  0.33776171    -0.92200
O510        O  0.46858691  0.13192444  0.34978382    -0.40000
O511        O  0.36482101  0.12921147  0.35765999    -0.76600
O512        O  0.43679049  0.18101663  0.36263522    -0.95300
O513        O  0.42635914  0.24931935  0.36467213    -0.88600
O514        O  0.35056221  0.19403914  0.35948639    -0.91400
C515        C  0.42599730  0.12278314  0.30048709     1.02300
C516        C  0.31934693  0.15178761  0.29586182     1.15300
C517        C  0.99858764  0.27960171  0.29960423     1.06000
O518        O  0.52327252  0.23607477  0.35052585    -0.93600
O519        O  0.49345643  0.25509935  0.37838485    -0.89300
O520        O  0.44629379  0.21339235  0.39488840    -0.82500
C521        C  0.48006466  0.23868186  0.39253943     1.12700
O522        O  0.38320484  0.29813087  0.32402204    -0.95600
Zr523      Zr  0.38622738  0.25682021  0.34619196     1.88900
O524        O  0.38390053  0.23458090  0.39344346    -0.72200
O525        O  0.50700689  0.31757095  0.35505213    -0.51500
O526        O  0.43093051  0.32879023  0.34966432    -0.96200
O527        O  0.32744333  0.25163830  0.34368826    -0.53400
O528        O  0.37737883  0.27398214  0.37438859    -0.72700
C529        C  0.37876305  0.26322005  0.38951220     0.99600
O530        O  0.38442336  0.14623225  0.40259215    -0.61500
O531        O  0.29001317  0.06661422  0.33384609    -0.56300
O532        O  0.33156407  0.13405493  0.38707240    -0.93000
O533        O  0.29169804  0.11277060  0.36451057    -0.91500
O534        O  0.37238489  0.05510743  0.33417176    -0.91800
O535        O  0.40052527  0.07912897  0.36495531    -0.90600
C536        C  0.29957941  0.11319452  0.38027963     1.18500
H537        H  0.35872662  0.11108743  0.31570312     0.34400
H538        H  0.45209066  0.17661169  0.37027577     0.45300
H539        H  0.33148303  0.19371042  0.36587698     0.38800
H540        H  0.44517077  0.27869259  0.32439513     0.35300
H541        H  0.46529624  0.10564476  0.34610404     0.27000
H542        H  0.00494064  0.32780993  0.35713324     0.33000
H543        H  0.44330890  0.33155341  0.36072338     0.38900
H544        H  0.34726186  0.04904123  0.33552548     0.33400
H545        H  0.29264562  0.05487251  0.34444035     0.32200
H546        H  0.25262032  0.11860601  0.33289748     0.33900
H547        H  0.31552154  0.24084082  0.35457079     0.32900
H548        H  0.41787002  0.09593761  0.37422988     0.36900
H549        H  0.40319938  0.13886122  0.40182012     0.29600
H550        H  0.42151845  0.22361656  0.27667669     0.33800
H551        H  0.37841080  0.28185332  0.31345264     0.36700
H552        H  0.26449339  0.05993413  0.33365525     0.29300
H553        H  0.39220168  0.16545578  0.41239366     0.42200
H554        H  0.54343552  0.26077553  0.34560173     0.32200
H555        H  0.48592108  0.15150706  0.34172040     0.39900
H556        H  0.31324580  0.22929069  0.33531282     0.31700
H557        H  0.03793255  0.32731497  0.34937556     0.31800
H558        H  0.42127440  0.25835796  0.28717975     0.32000
C559        C  0.09566146  0.44055939  0.25278567    -0.15400
C560        C  0.07316182  0.45016827  0.26013459    -0.30600
H561        H  0.11799880  0.46264529  0.24540842     0.13600
H562        H  0.04957682  0.42677056  0.26651522     0.14200
C563        C  0.02710597  0.30867543  0.28847462    -0.15400
C564        C  0.03086725  0.30011385  0.27238192    -0.30600
H565        H  0.04630496  0.33850195  0.29390550     0.13600
H566        H  0.01416265  0.26953103  0.26716423     0.14200
C567        C  0.12714761  0.34505180  0.23036992    -0.15400
C568        C  0.14465790  0.36977111  0.21755961    -0.30600
H569        H  0.12941121  0.31878852  0.23253742     0.13600
H570        H  0.14015068  0.39429225  0.21481948     0.14200
C571        C  0.17160203  0.09128595  0.25546404    -0.15400
C572        C  0.13966999  0.08652680  0.25048840    -0.30600
H573        H  0.17239767  0.06807416  0.26265538     0.13600
H574        H  0.13916542  0.11124452  0.24440261     0.14200
C575        C  0.24463183  0.22525460  0.23122780    -0.15400
C576        C  0.27434340  0.25230036  0.22311764    -0.30600
H577        H  0.21926574  0.22444715  0.22907617     0.13600
H578        H  0.29899192  0.25116145  0.22390980     0.14200
C579        C  0.29369049  0.14408738  0.28187306    -0.15400
C580        C  0.30006832  0.17108398  0.26978084    -0.30600
H581        H  0.26676440  0.11745049  0.28298082     0.13600
H582        H  0.32640630  0.19882693  0.26915951     0.14200
C583        C  0.98191967  0.50262176  0.25318581    -0.15400
C584        C  0.01407913  0.53173745  0.25988159    -0.30600
H585        H  0.43965392  0.45046789  0.26079544     0.13600
H586        H  0.01496685  0.05310080  0.26551197     0.14200
C587        C  0.33947866  0.47218658  0.24349732    -0.15400
C588        C  0.31716198  0.43227760  0.24071915    -0.30600
H589        H  0.34008310  0.49364136  0.23458350     0.13600
H590        H  0.31538323  0.41124070  0.25018262     0.14200
C591        C  0.41346348  0.08452896  0.27358249    -0.15400
C592        C  0.43449579  0.10186931  0.28752843    -0.30600
H593        H  0.38996057  0.08729723  0.27113422     0.13600
H594        H  0.45629186  0.09649918  0.29062062     0.14200
C595        C  0.23564989  0.46199830  0.41107165    -0.15400
C596        C  0.20474260  0.46005876  0.40629726    -0.30600
H597        H  0.26142554  0.49059315  0.41120632     0.13600
H598        H  0.17917948  0.43122008  0.40602483     0.14200
C599        C  0.27004544  0.08606337  0.39123298    -0.15400
C600        C  0.23555022  0.07585716  0.38812882    -0.30600
H601        H  0.27646955  0.07233806  0.40157165     0.13600
H602        H  0.22906118  0.09148308  0.37869347     0.14200
C603        C  0.09916564  0.98268744  0.42928647    -0.15400
C604        C  0.12110106  0.01235777  0.41883281    -0.30600
H605        H  0.13012993  0.47216698  0.43599124     0.13600
H606        H  0.12332751  0.04160887  0.41968704     0.14200
C607        C  0.13351472  0.32485421  0.43292616    -0.15400
C608        C  0.16504584  0.32883835  0.43828665    -0.30600
H609        H  0.13358000  0.34656544  0.42435270     0.13600
H610        H  0.16479095  0.30497161  0.44548310     0.14200
C611        C  0.50614721  0.24890485  0.40671442    -0.15400
C612        C  0.50029721  0.22387641  0.41959280    -0.30600
H613        H  0.53268200  0.27605669  0.40543993     0.13600
H614        H  0.47443960  0.19563070  0.42045567     0.14200
C615        C  0.05783368  0.19615113  0.46057043    -0.15400
C616        C  0.03887350  0.15654020  0.45653467    -0.30600
H617        H  0.07495668  0.20696871  0.47201735     0.13600
H618        H  0.02476465  0.14624857  0.44427660     0.14200
C619        C  0.32289004  0.40109521  0.41973437    -0.15400
C620        C  0.28753281  0.37340721  0.41731823    -0.30600
H621        H  0.33157319  0.43174614  0.42392682     0.13600
H622        H  0.27891404  0.34189991  0.41489445     0.14200
C623        C  0.35945264  0.30769897  0.40062302    -0.15400
C624        C  0.37602202  0.28700216  0.40331447    -0.30600
H625        H  0.34353832  0.30254370  0.38900278     0.13600
H626        H  0.39015535  0.29010859  0.41529712     0.14200
C627        C  0.43236401  0.41177115  0.44373390    -0.15400
C628        C  0.45263321  0.45201251  0.44538362    -0.30600
H629        H  0.43859719  0.39271011  0.45125315     0.13600
H630        H  0.44846900  0.47104566  0.43679604     0.14200
C631        C  0.41212231  0.07614368  0.57599247    -0.15400
C632        C  0.42709065  0.09780500  0.56213175    -0.30600
H633        H  0.39212631  0.07927129  0.58291450     0.13600
H634        H  0.44765020  0.09482076  0.55563533     0.14200
C635        C  0.40718890  0.47215395  0.61801394    -0.15400
C636        C  0.37113858  0.44966807  0.61550260    -0.30600
H637        H  0.41151789  0.96422442  0.62430833     0.13600
H638        H  0.35878345  0.45549332  0.60463350     0.14200
C639        C  0.99591621  0.04459001  0.57439865    -0.15400
C640        C  0.01291861  0.07374031  0.56293929    -0.30600
H641        H  0.51049306  0.01707727  0.57830549     0.13600
H642        H  0.00861074  0.09900949  0.56273582     0.14200
C643        C  0.00671823  0.28096097  0.56650320    -0.15400
C644        C  0.03620143  0.28804504  0.57545931    -0.30600
H645        H  0.00695360  0.30508815  0.55953387     0.13600
H646        H  0.03455625  0.26454605  0.58344611     0.14200
C647        C  0.15446624  0.36407935  0.60259758    -0.15400
C648        C  0.14392480  0.33227947  0.61272035    -0.30600
H649        H  0.18238075  0.38935066  0.60301528     0.13600
H650        H  0.11554399  0.30820454  0.61292052     0.14200
C651        C  0.11781423  0.43062237  0.56038290    -0.15400
C652        C  0.10972842  0.42702141  0.54370729    -0.30600
H653        H  0.12819478  0.45935640  0.56713390     0.13600
H654        H  0.10176737  0.39868472  0.53706761     0.14200
C655        C  0.35410351  0.19372831  0.56758773    -0.15400
C656        C  0.35639193  0.16683937  0.55761864    -0.30600
H657        H  0.37768604  0.21603731  0.57508695     0.13600
H658        H  0.33215235  0.14213898  0.55134897     0.14200
C659        C  0.27750724  0.22466452  0.60132476    -0.15400
C660        C  0.25681550  0.24118397  0.60148701    -0.30600
H661        H  0.29348145  0.22697590  0.61256444     0.13600
H662        H  0.24353197  0.24232439  0.58986123     0.14200
C663        C  0.19645014  0.12750249  0.55085069    -0.15400
C664        C  0.23145624  0.15016329  0.54676179    -0.30600
H665        H  0.18902410  0.12464023  0.56406161     0.13600
H666        H  0.23932645  0.15073265  0.53372462     0.14200
C667        C  0.04169392  0.11312546  0.75167439    -0.15400
C668        C  0.06901659  0.10618994  0.75011990    -0.30600
H669        H  0.01809257  0.09318370  0.75890521     0.13600
H670        H  0.09342395  0.12823877  0.74380132     0.14200
C671        C  0.09621975  0.23214282  0.71541624    -0.15400
C672        C  0.13003023  0.23864614  0.71629417    -0.30600
H673        H  0.08914920  0.24750552  0.70609728     0.13600
H674        H  0.13776928  0.22597645  0.72656834     0.14200
C675        C  0.99289723  0.20071191  0.75126198    -0.15400
C676        C  0.49744197  0.19434932  0.77481794    -0.30600
H677        H  0.46373891  0.19189244  0.75430038     0.13600
H678        H  0.52315986  0.19686232  0.77818688     0.14200
C679        C  0.13602365  0.00568416  0.75431319    -0.15400
C680        C  0.13421410  0.03496741  0.76267171    -0.30600
H681        H  0.11186083  0.98116133  0.74791531     0.13600
H682        H  0.15886107  0.06150513  0.76771075     0.14200
C683        C  0.26332625  0.05765122  0.77135203    -0.15400
C684        C  0.26046899  0.07140867  0.78653463    -0.30600
H685        H  0.28937986  0.06273917  0.76737898     0.13600
H686        H  0.23405028  0.06393693  0.79103440     0.14200
C687        C  0.23376619  0.43070798  0.72791881    -0.15400
C688        C  0.20769125  0.43984340  0.72640572    -0.30600
H689        H  0.25092604  0.43909628  0.73930966     0.13600
H690        H  0.18917345  0.42862635  0.71542313     0.14200
C691        C  0.47926541  0.43915888  0.76280369    -0.15400
C692        C  0.48614973  0.46899566  0.75220110    -0.30600
H693        H  0.49964232  0.44299726  0.77216722     0.13600
H694        H  0.99917069  0.93763105  0.77518632     0.14200
C695        C  0.38537341  0.26526394  0.78247036    -0.15400
C696        C  0.40375097  0.30541843  0.78533775    -0.30600
H697        H  0.37233665  0.25267605  0.77016393     0.13600
H698        H  0.41933432  0.31782760  0.79715243     0.14200
C699        C  0.36791033  0.37312152  0.72288565    -0.15400
C700        C  0.35997605  0.34763921  0.73579627    -0.30600
H701        H  0.39565498  0.39797752  0.72142982     0.13600
H702        H  0.33282663  0.32128377  0.73675798     0.14200
C703        C  0.03912514  0.25812206  0.87480729    -0.15400
C704        C  0.03615329  0.27293590  0.88967879    -0.30600
H705        H  0.06566701  0.26598106  0.87032890     0.13600
H706        H  0.00983205  0.26711929  0.89359502     0.14200
C707        C  0.08773240  0.36693297  0.93778210    -0.15400
C708        C  0.06243592  0.37711184  0.93695042    -0.30600
H709        H  0.10550000  0.37487797  0.94895576     0.13600
H710        H  0.04691835  0.37275667  0.92528375     0.14200
C711        C  0.16470549  0.33261057  0.90648441    -0.15400
C712        C  0.16757279  0.30420128  0.89803194    -0.30600
H713        H  0.18803958  0.35680799  0.91348891     0.13600
H714        H  0.14351174  0.27799453  0.89237354     0.14200
C715        C  0.25461669  0.21957402  0.90764610    -0.15400
C716        C  0.22750555  0.22704300  0.90799233    -0.30600
H717        H  0.28151372  0.24235204  0.90376614     0.13600
H718        H  0.20053388  0.20270064  0.91119716     0.14200
C719        C  0.29934355  0.12800156  0.90794509    -0.15400
C720        C  0.29025485  0.09837487  0.89638075    -0.30600
H721        H  0.32730376  0.15320496  0.90889371     0.13600
H722        H  0.26168704  0.07560402  0.89415815     0.14200
C723        C  0.17849952  0.08486506  0.93042167    -0.15400
C724        C  0.17981574  0.06665523  0.94447699    -0.30600
H725        H  0.15391238  0.08491241  0.92715093     0.13600
H726        H  0.20558977  0.07048335  0.94872926     0.14200
C727        C  0.33290519  0.38623032  0.90702917    -0.15400
C728        C  0.30234509  0.37812064  0.89868800    -0.30600
H729        H  0.33278129  0.36447950  0.91559267     0.13600
H730        H  0.30240304  0.40150630  0.89120197     0.14200
C731        C  0.39719955  0.99702090  0.88587583    -0.15400
C732        C  0.41215902  0.03685489  0.88861672    -0.30600
H733        H  0.38096619  0.98256298  0.87439385     0.13600
H734        H  0.42528701  0.05060006  0.90079576     0.14200
C735        C  0.45613979  0.48165202  0.92837438    -0.15400
C736        C  0.44910228  0.46304569  0.94328132    -0.30600
H737        H  0.48411216  0.98752939  0.92669283     0.13600
H738        H  0.42112245  0.44206090  0.94660419     0.14200
C739        C  0.33008536  0.09454128  0.07588126    -0.15400
C740        C  0.29849348  0.09201966  0.07197025    -0.30600
H741        H  0.32990977  0.06912706  0.08165379     0.13600
H742        H  0.29837212  0.11607985  0.06514637     0.14200
C743        C  0.22713726  0.45252205  0.11356437    -0.15400
C744        C  0.25264877  0.46808753  0.10174556    -0.30600
H745        H  0.20708387  0.46142004  0.11434466     0.13600
H746        H  0.27436131  0.46163199  0.10206092     0.14200
C747        C  0.16713560  0.02459543  0.06593835    -0.15400
C748        C  0.17181872  0.05268657  0.05464329    -0.30600
H749        H  0.14047780  0.99769045  0.06729687     0.13600
H750        H  0.16085965  0.47430521  0.06868313     0.14200
C751        C  0.38991739  0.25551418  0.07946960    -0.15400
C752        C  0.40835855  0.24497613  0.06920320    -0.30600
H753        H  0.37163880  0.23428322  0.08859684     0.13600
H754        H  0.42874802  0.26729237  0.06103936     0.14200
C755        C  0.36432710  0.35335422  0.10519543    -0.15400
C756        C  0.35009103  0.33043037  0.11888109    -0.30600
H757        H  0.36083479  0.37882497  0.10310014     0.13600
H758        H  0.35523218  0.30629997  0.12142503     0.14200
C759        C  0.43458132  0.38588053  0.05289566    -0.15400
C760        C  0.45708370  0.42590910  0.05513896    -0.30600
H761        H  0.43396260  0.37167983  0.04081663     0.13600
H762        H  0.46110137  0.43973860  0.06768552     0.14200
C763        C  0.49410082  0.18603626  0.07540299    -0.15400
C764        C  0.46298116  0.15879674  0.06730987    -0.30600
H765        H  0.49532190  0.21066510  0.08275981     0.13600
H766        H  0.46042763  0.13189112  0.06139278     0.14200
C767        C  0.17977367  0.26676777  0.09792487    -0.15400
C768        C  0.15905164  0.28020043  0.09149990    -0.30600
H769        H  0.17395118  0.23670656  0.09436353     0.13600
H770        H  0.16182627  0.30779131  0.09680421     0.14200
C771        C  0.06281901  0.12673899  0.05192801    -0.15400
C772        C  0.08978784  0.16557124  0.05175120    -0.30600
H773        H  0.04303307  0.11605834  0.06187078     0.13600
H774        H  0.11143998  0.17529565  0.04276792     0.14200
C775        C  0.09157143  0.68011113  0.09394417     0.81200
N776        N  0.08462673  0.64566407  0.08584479    -0.77100
C777        C  0.05328645  0.62337191  0.07658385     0.83700
N778        N  0.02871127  0.63510730  0.07584843    -0.77000
C779        C  0.53839347  0.70902745  0.07497183     0.83800
N780        N  0.06685104  0.69180346  0.09316399    -0.78700
C781        C  0.41451443  0.87801163  0.06831603     0.81200
N782        N  0.41693261  0.84448228  0.06887523    -0.77100
C783        C  0.39422771  0.81296850  0.07841361     0.83700
N784        N  0.36926398  0.81518375  0.08761712    -0.77000
C785        C  0.36661137  0.84856665  0.08732494     0.83800
N786        N  0.38895296  0.87999654  0.07741820    -0.78700
C787        C  0.23530514  0.52234491  0.06786023     0.81200
N788        N  0.19543931  0.99526054  0.08374105    -0.77100
C789        C  0.22572093  0.99552842  0.08941100     0.83700
N790        N  0.29148380  0.52849739  0.08651029    -0.77000
C791        C  0.29798512  0.55588416  0.07455669     0.83800
N792        N  0.26986825  0.55251290  0.06521167    -0.78700
C793        C  0.44475941  0.69253192  0.06437149     0.04100
C794        C  0.41060151  0.65691610  0.06280959    -0.12000
C795        C  0.37887024  0.65849421  0.06350265     0.01600
C796        C  0.38150976  0.69586770  0.06528986    -0.10500
C797        C  0.41558814  0.73165984  0.06698151     0.04100
C798        C  0.44712245  0.72994167  0.06622628    -0.10000
H799        H  0.40876601  0.62803350  0.06131496     0.09700
H800        H  0.35686027  0.69688343  0.06551972     0.07300
H801        H  0.47341998  0.75771910  0.06716686     0.07100
C802        C  0.40195880  0.48837029  0.89292465     0.81200
N803        N  0.36415473  0.93699627  0.90243022    -0.77100
C804        C  0.36181912  0.91214259  0.91488650     0.83700
N805        N  0.39219216  0.92083189  0.92392724    -0.77000
C806        C  0.42477865  0.95449617  0.92072840     0.83800
N807        N  0.42989363  0.49837372  0.90415536    -0.78700
C808        C  0.21199098  0.60434471  0.92719793     0.81200
N809        N  0.21497761  0.64069631  0.92534034    -0.77100
C810        C  0.24448007  0.67147648  0.91809235     0.83700
N811        N  0.27089794  0.66558265  0.91248205    -0.77000
C812        C  0.26796013  0.62916463  0.91394919     0.83800
N813        N  0.23837252  0.59824316  0.92131705    -0.78700
C814        C  0.19365060  0.79473694  0.91300025     0.04100
C815        C  0.19225237  0.75825704  0.91566882    -0.12000
C816        C  0.22427036  0.75735254  0.91733176     0.01600
C817        C  0.25800588  0.79368400  0.91659983    -0.10500
C818        C  0.25990282  0.83037838  0.91359915     0.04100
C819        C  0.22759738  0.83057394  0.91158913    -0.10000
H820        H  0.16611543  0.73047824  0.91653612     0.09700
H821        H  0.28279101  0.79337477  0.91809940     0.07300
H822        H  0.22896328  0.85869854  0.90891292     0.07100
C823        C  0.06152798  0.79850492  0.90952430     0.81200
N824        N  0.05905938  0.82397386  0.92055302    -0.77100
C825        C  0.08782658  0.84947481  0.93078174     0.83700
N826        N  0.11914142  0.84934069  0.93006072    -0.77000
C827        C  0.12200178  0.82410583  0.91900572     0.83800
N828        N  0.09310504  0.79860498  0.90870957    -0.78700
Zr829      Zr  0.05328401  0.00617838  0.03024680     2.17500
O830        O  0.04522908  0.98501898  0.05962319    -0.50300
O831        O  0.06938453  0.52084333  0.05245650    -0.73500
O832        O  0.11037640  0.02533231  0.04531597    -0.80300
O833        O  0.48399165  0.94511751  0.02824051    -0.82100
O834        O  0.15697233  0.50182673  0.02942151    -0.77700
O835        O  0.53139528  0.95691075  0.04554425    -0.89300
O836        O  0.07017896  0.56862841  0.03572687    -0.75300
O837        O  0.10308499  0.52460924  0.02099582    -0.84800
O838        O  0.01549767  0.01979828  0.01265030    -0.84500
O839        O  0.08932693  0.98615394  0.01485870    -0.71200
O840        O  0.01777834  0.94644025  0.01272990    -0.83400
Zr841      Zr  0.05695172  0.00038915  0.96305600     2.26400
Zr842      Zr  0.13142918  0.50203030  0.00172174     2.06300
Zr843      Zr  0.50905500  0.96271019  0.00012849     2.10000
Zr844      Zr  0.07222373  0.55202332  0.00644194     1.78800
O845        O  0.45794059  0.89315682  0.99815257    -0.92200
O846        O  0.13203288  0.61272521  0.01082702    -0.40000
O847        O  0.03058836  0.50340686  0.98577670    -0.76600
O848        O  0.10214429  0.53191498  0.98717497    -0.95300
O849        O  0.09387590  0.98586809  0.98056628    -0.88600
O850        O  0.01624885  0.94213953  0.97859906    -0.91400
C851        C  0.07039832  0.55403361  0.05015270     1.02300
C852        C  0.49754774  0.94241782  0.04240827     1.15300
C853        C  0.14499808  0.48995589  0.04433443     1.06000
O854        O  0.18504293  0.56916156  0.00635707    -0.93600
O855        O  0.16235320  0.52547913  0.97512568    -0.89300
O856        O  0.12045126  0.51674406  0.95485235    -0.82500
C857        C  0.15316021  0.52911436  0.96001676     1.12700
O858        O  0.04898515  0.88613272  0.01972974    -0.95600
Zr859      Zr  0.05394078  0.92887088  0.99633635     1.88900
O860        O  0.05302060  0.94257826  0.94858887    -0.72200
O861        O  0.17192888  0.02112655  0.00066188    -0.51500
O862        O  0.10855181  0.92552964  0.00037217    -0.96200
O863        O  0.00321273  0.85936776  0.99288373    -0.53400
O864        O  0.06245184  0.90769092  0.96884336    -0.72700
C865        C  0.05923475  0.91522934  0.95339539     0.99600
O866        O  0.07481051  0.52711228  0.94348162    -0.61500
O867        O  0.47077383  0.99179755  0.00185922    -0.56300
O868        O  0.00164005  0.98465845  0.94789250    -0.93000
O869        O  0.47683638  0.95042985  0.97337437    -0.91500
O870        O  0.02890838  0.57452950  0.00669330    -0.91800
O871        O  0.08493133  0.60502902  0.98655033    -0.90600
C872        C  0.96808050  0.96780397  0.95162766     1.18500
H873        H  0.99982378  0.02518957  0.01932513     0.34400
H874        H  0.11986186  0.55583757  0.98148060     0.45300
H875        H  0.00079476  0.91943722  0.97105832     0.38800
H876        H  0.10306993  0.97917500  0.02231844     0.35300
H877        H  0.12741116  0.63217578  0.01681981     0.27000
H878        H  0.16476643  0.46278003  0.98603363     0.33000
H879        H  0.11028641  0.91206571  0.98999845     0.38900
H880        H  0.01193747  0.55913178  0.01575387     0.33400
H881        H  0.44632279  0.96862015  0.00424519     0.32200
H882        H  0.45953144  0.88042553  0.00865070     0.33900
H883        H  0.99355981  0.85711216  0.98118992     0.32900
H884        H  0.06702287  0.59108005  0.97708899     0.36900
H885        H  0.06034722  0.50998841  0.93356182     0.29600
H886        H  0.06055508  0.00991054  0.06661244     0.33800
H887        H  0.06393882  0.90525112  0.02908185     0.36700
H888        H  0.47864016  0.00851941  0.01243968     0.29300
H889        H  0.06415185  0.54372448  0.94629162     0.42200
H890        H  0.20519101  0.56433436  0.00845060     0.32200
H891        H  0.14454952  0.60547924  0.01942094     0.39900
H892        H  0.98420364  0.85803271  0.00018922     0.31700
H893        H  0.16497067  0.00389839  0.01071068     0.31800
H894        H  0.05686208  0.96881024  0.06085170     0.32000
C895        C  0.40003412  0.84052426  0.76527087     0.81200
N896        N  0.37177564  0.83678409  0.75565508    -0.77100
C897        C  0.37837014  0.86367805  0.74326355     0.83700
N898        N  0.41302972  0.89311521  0.74037122    -0.77000
C899        C  0.44119134  0.89668838  0.74970591     0.83800
N900        N  0.43457809  0.87065036  0.76232934    -0.78700
C901        C  0.23193780  0.52257278  0.75758584     0.81200
N902        N  0.20059600  0.52260468  0.75792639    -0.77100
C903        C  0.17112087  0.49533801  0.74850491     0.83700
N904        N  0.17314028  0.46766040  0.73859087    -0.77000
C905        C  0.20446989  0.46712999  0.73835510     0.83800
N906        N  0.23388676  0.49483188  0.74778983    -0.78700
C907        C  0.09130968  0.72178119  0.73926312     0.81200
N908        N  0.09000781  0.68799380  0.74464360    -0.77100
C909        C  0.06200969  0.66090210  0.75396240     0.83700
N910        N  0.03545634  0.66800192  0.75805320    -0.77000
C911        C  0.03670045  0.70195958  0.75295783     0.83800
N912        N  0.06467879  0.72909352  0.74350160    -0.78700
C913        C  0.10444326  0.53014935  0.75763317     0.04100
C914        C  0.07004950  0.49604967  0.76021644    -0.12000
C915        C  0.03955374  0.49986592  0.76105790     0.01600
C916        C  0.04374459  0.53816791  0.75973238    -0.10500
C917        C  0.07809889  0.57253162  0.75725080     0.04100
C918        C  0.10830904  0.56821743  0.75630086    -0.10000
H919        H  0.06674701  0.97240660  0.76977155     0.09700
H920        H  0.49950966  0.54118906  0.74283351     0.07300
H921        H  0.13491310  0.59452640  0.75423051     0.07100
Zr922      Zr  0.38376347  0.66468684  0.79751321     2.17500
O923        O  0.38452790  0.63718908  0.76963865    -0.50300
O924        O  0.37250460  0.71440765  0.78511171    -0.73500
O925        O  0.32288330  0.61772435  0.78628463    -0.80300
O926        O  0.48765011  0.72619644  0.79959269    -0.82100
O927        O  0.28390362  0.59536481  0.80811719    -0.77700
O928        O  0.43883826  0.69587751  0.78126638    -0.89300
O929        O  0.37995205  0.75927131  0.80601509    -0.75300
O930        O  0.34658466  0.67364227  0.81673626    -0.84800
O931        O  0.42319426  0.72498751  0.81356197    -0.84500
O932        O  0.35622134  0.60472934  0.81409687    -0.74800
O933        O  0.42721522  0.65277122  0.81133272    -0.83400
Zr934      Zr  0.40114798  0.66259320  0.86447273     2.26400
Zr935      Zr  0.32026750  0.61522385  0.83393416     2.06300
Zr936      Zr  0.46537447  0.71266135  0.82808209     2.10000
Zr937      Zr  0.38602725  0.73340860  0.83292886     1.78800
O938        O  0.51519425  0.70081906  0.82474818    -0.92200
O939        O  0.32890180  0.73180334  0.83491354    -0.40000
O940        O  0.42915358  0.72271319  0.84794742    -0.76600
O941        O  0.35845203  0.67562146  0.85048969    -0.95300
O942        O  0.36235043  0.60235536  0.84827621    -0.88600
O943        O  0.43859255  0.65411798  0.84513454    -0.91400
C944        C  0.37452569  0.74694440  0.79046132     1.02300
C945        C  0.47319228  0.71627672  0.78464454     1.15300
C946        C  0.29105083  0.59736577  0.79239569     1.06000
O947        O  0.26926982  0.62501002  0.83723306    -0.93600
O948        O  0.29730069  0.60047786  0.86227751    -0.89300
O949        O  0.34569715  0.63250812  0.88075815    -0.82500
C950        C  0.31134457  0.61137631  0.87726050     1.12700
O951        O  0.39786982  0.55699915  0.80326660    -0.95600
Zr952      Zr  0.39987132  0.59461637  0.82870627     1.88900
O953        O  0.41092109  0.61135123  0.87660598    -0.72200
O954        O  0.28220117  0.54171969  0.83376687    -0.51500
O955        O  0.35177916  0.52359485  0.82863355    -0.96200
O956        O  0.45686619  0.59642925  0.82530745    -0.53400
O957        O  0.40766134  0.56939378  0.85531684    -0.72700
C958        C  0.41140260  0.58037665  0.87098866     0.99600
O959        O  0.40222525  0.68961062  0.89274140    -0.61500
O960        O  0.50469130  0.78599107  0.82785519    -0.56300
O961        O  0.46218020  0.70865942  0.87577787    -0.93000
O962        O  0.50130094  0.73203113  0.85403469    -0.91500
O963        O  0.43626454  0.80340814  0.83469772    -0.91800
O964        O  0.38464504  0.77171066  0.85730366    -0.90600
C965        C  0.49413123  0.72857503  0.86977610     1.18500
H966        H  0.43581298  0.74796994  0.80636298     0.34400
H967        H  0.34440519  0.67999804  0.85867412     0.45300
H968        H  0.45720221  0.65179206  0.85107638     0.38800
H969        H  0.34100229  0.58095368  0.80704708     0.35300
H970        H  0.33456467  0.75883967  0.83133591     0.27000
H971        H  0.28412245  0.53404368  0.84547174     0.33000
H972        H  0.33681617  0.52130250  0.83840499     0.38900
H973        H  0.44804000  0.80833348  0.82361584     0.33400
H974        H  0.00747529  0.80273541  0.82118080     0.32200
H975        H  0.05176230  0.74211219  0.82807401     0.33900
H976        H  0.46990850  0.60575898  0.83642341     0.32900
H977        H  0.39377370  0.76295326  0.86691126     0.36900
H978        H  0.41613048  0.68151526  0.90008318     0.29600
H979        H  0.37056799  0.64457567  0.76197290     0.33800
H980        H  0.40325668  0.53641503  0.80717666     0.36700
H981        H  0.52966048  0.79108671  0.82902325     0.29300
H982        H  0.41768744  0.71939944  0.89210716     0.42200
H983        H  0.27890939  0.64956591  0.84459460     0.32200
H984        H  0.31316646  0.71320866  0.82559040     0.39900
H985        H  0.47111625  0.61920785  0.81770968     0.31700
H986        H  0.25703228  0.53602191  0.83262774     0.31800
H987        H  0.36937729  0.60742211  0.77047576     0.32000
C988        C  0.26459804  0.67656088  0.56608678     0.81200
N989        N  0.26014035  0.69761200  0.57867688    -0.77100
C990        C  0.28833151  0.72202277  0.58947401     0.83700
N991        N  0.32091724  0.72497032  0.58776176    -0.77000
C992        C  0.32530970  0.70379899  0.57518091     0.83800
N993        N  0.29719507  0.67997190  0.56429874    -0.78700
C994        C  0.11472617  0.85258928  0.58208822     0.81200
N995        N  0.12044186  0.88556616  0.57351722    -0.77100
C996        C  0.09571550  0.88159001  0.56146042     0.83700
N997        N  0.06522145  0.84486650  0.55826508    -0.77000
C998        C  0.05956980  0.81218170  0.56686518     0.83800
N999        N  0.08437727  0.81618904  0.57862874    -0.78700
C1000       C  0.42848133  0.50636290  0.60695523     0.81200
N1001       N  0.41438265  0.52890660  0.60160804    -0.77100
C1002       C  0.43269530  0.55891583  0.59058495     0.83700
N1003       N  0.95648692  0.56927596  0.57893455    -0.77000
C1004       C  0.47942455  0.54428939  0.59024134     0.83800
N1005       N  0.46091546  0.51385311  0.60116074    -0.78700
C1006       C  0.39500026  0.67466211  0.56485972     0.04100
C1007       C  0.39548940  0.63923162  0.56770980    -0.12000
C1008       C  0.42761681  0.63904782  0.56566226     0.01600
C1009       C  0.45867981  0.67382376  0.56024885    -0.10500
C1010       C  0.45898036  0.70985967  0.55815384     0.04100
C1011       C  0.42682896  0.70992042  0.56004947    -0.10000
H1012       H  0.37115058  0.61219237  0.57168882     0.09700
H1013       H  0.98655679  0.69159663  0.55615240     0.07300
H1014       H  0.42684817  0.73758331  0.55811368     0.07100
Zr1015     Zr  0.23834750  0.84581078  0.69635380     2.17500
O1016       O  0.22936122  0.81174580  0.72319790    -0.50300
O1017       O  0.23969274  0.89999639  0.71276664    -0.73500
O1018       O  0.29475863  0.86299130  0.71130278    -0.80300
O1019       O  0.13540394  0.78318520  0.68638827    -0.82100
O1020       O  0.34113920  0.90044766  0.69370788    -0.77700
O1021       O  0.17823639  0.80117613  0.70742729    -0.89300
O1022       O  0.23431141  0.94202783  0.69479804    -0.75300
O1023       O  0.27799484  0.90814113  0.68307089    -0.84800
O1024       O  0.20068913  0.86193064  0.68016142    -0.84500
O1025       O  0.27666007  0.83216898  0.67927255    -0.71200
O1026       O  0.20361994  0.78935666  0.67701921    -0.83400
Zr1027     Zr  0.24454927  0.85481305  0.62966906     2.26400
Zr1028     Zr  0.31554108  0.89466790  0.66548903     2.06300
Zr1029     Zr  0.16734948  0.80724505  0.66022214     2.10000
Zr1030     Zr  0.24000971  0.92313786  0.66644663     1.78800
O1031       O  0.12201554  0.73611903  0.65484890    -0.92200
O1032       O  0.29239930  0.99167699  0.66959893    -0.40000
O1033       O  0.20635630  0.86898973  0.64628110    -0.76600
O1034       O  0.27863323  0.91188316  0.64889774    -0.95300
O1035       O  0.28240292  0.83903631  0.64587951    -0.88600
O1036       O  0.20424407  0.79258913  0.64283377    -0.91400
C1037       C  0.23581094  0.92989088  0.70959158     1.02300
C1038       C  0.14511864  0.78360599  0.70185431     1.15300
C1039       C  0.32860668  0.88404801  0.70794194     1.06000
O1040       O  0.35976115  0.96602975  0.67137031    -0.93600
O1041       O  0.34738048  0.92184655  0.63920732    -0.89300
O1042       O  0.30303699  0.90413278  0.61901150    -0.82500
C1043       C  0.33632251  0.92310066  0.62413968     1.12700
O1044       O  0.23862591  0.73468940  0.68257930    -0.95600
Zr1045     Zr  0.24221495  0.77765592  0.65949954     1.88900
O1046       O  0.24227175  0.79950938  0.61357711    -0.72200
O1047       O  0.36248111  0.87775705  0.66327613    -0.51500
O1048       O  0.29108250  0.76397398  0.66283280    -0.96200
O1049       O  0.19033482  0.71015656  0.65280731    -0.53400
O1050       O  0.25766997  0.76572585  0.63177057    -0.72700
C1051       C  0.25230921  0.77440541  0.61685887     0.99600
O1052       O  0.25180924  0.87656912  0.60036814    -0.61500
O1053       O  0.12190917  0.82653043  0.66217749    -0.56300
O1054       O  0.19055695  0.84985886  0.61707067    -0.93000
O1055       O  0.14251885  0.80500474  0.63219066    -0.91500
O1056       O  0.18631252  0.92892581  0.66564072    -0.91800
O1057       O  0.24065296  0.96810424  0.64502094    -0.90600
C1058       C  0.15639189  0.82708640  0.61929941     1.18500
H1059       H  0.18419808  0.86480492  0.68732325     0.34400
H1060       H  0.29341871  0.93681126  0.64310101     0.45300
H1061       H  0.18938754  0.77128752  0.63462108     0.38800
H1062       H  0.29084555  0.82431054  0.68594901     0.35300
H1063       H  0.29152210  0.49398792  0.68249609     0.27000
H1064       H  0.38430562  0.90073398  0.66894592     0.33000
H1065       H  0.31175302  0.78611721  0.65690711     0.38900
H1066       H  0.17285074  0.91554021  0.67591894     0.33400
H1067       H  0.12939336  0.84858248  0.65405731     0.32200
H1068       H  0.12829218  0.72155189  0.66311700     0.33900
H1069       H  0.19784608  0.69130306  0.65669404     0.32900
H1070       H  0.23627469  0.95295347  0.63416201     0.36900
H1071       H  0.23240653  0.85334301  0.59362361     0.29600
H1072       H  0.24259619  0.83346602  0.73194701     0.33800
H1073       H  0.24555320  0.75218224  0.69291957     0.36700
H1074       H  0.09940683  0.80338328  0.65704158     0.29300
H1075       H  0.24533243  0.89764021  0.59998199     0.42200
H1076       H  0.36145192  0.97985362  0.66067214     0.32200
H1077       H  0.30851658  0.98984516  0.67815362     0.39900
H1078       H  0.18944689  0.70745980  0.64029851     0.31700
H1079       H  0.35498791  0.85491256  0.67096129     0.31800
H1080       H  0.24284763  0.79746342  0.72254009     0.32000
C1081       C  0.39426582  0.90666614  0.43852299     0.81200
N1082       N  0.39944854  0.88702548  0.42554754    -0.77100
C1083       C  0.37330975  0.86732654  0.41324464     0.83700
N1084       N  0.34193111  0.86751321  0.41390246    -0.77000
C1085       C  0.33654185  0.88685054  0.42697377     0.83800
N1086       N  0.36277099  0.90641777  0.43922733    -0.78700
C1087       C  0.53727035  0.74346822  0.43300292     0.81200
N1088       N  0.52983818  0.71452657  0.44454609    -0.77100
C1089       C  0.03687224  0.70315177  0.45007231     0.83700
N1090       N  0.06982258  0.73750261  0.44865694    -0.77000
C1091       C  0.07494759  0.76396771  0.43642548     0.83800
N1092       N  0.04704479  0.75616384  0.42577078    -0.78700
C1093       C  0.22559889  0.56419950  0.39945484     0.81200
N1094       N  0.22854564  0.53090649  0.39907558    -0.77100
C1095       C  0.17963308  0.97436119  0.40539640     0.83700
N1096       N  0.15054992  0.97538489  0.41071736    -0.77000
C1097       C  0.17081339  0.52791550  0.41390143     0.83800
N1098       N  0.19672624  0.56279673  0.40691477    -0.78700
C1099       C  0.23911013  0.86313715  0.42233395     0.04100
C1100       C  0.24083409  0.89870327  0.41723325    -0.12000
C1101       C  0.21123765  0.90355100  0.41943848     0.01600
C1102       C  0.18093525  0.87381303  0.42785524    -0.10500
C1103       C  0.17743775  0.83675487  0.43173893     0.04100
C1104       C  0.20691537  0.83160157  0.42900253    -0.10000
H1105       H  0.26503755  0.92231313  0.41137572     0.09700
H1106       H  0.15984840  0.87954767  0.43134406     0.07300
H1107       H  0.20506716  0.80351654  0.43228685     0.07100
Zr1108     Zr  0.08497704  0.53263431  0.53456596     2.17500
O1109       O  0.06486529  0.00585086  0.55879737    -0.50300
O1110       O  0.14009648  0.58408894  0.54936071    -0.73500
O1111       O  0.08650877  0.97281840  0.53557836    -0.80300
O1112       O  0.03981281  0.59344382  0.53903457    -0.82100
O1113       O  0.08340133  0.94005144  0.51091382    -0.77700
O1114       O  0.05003820  0.54901330  0.55292734    -0.89300
O1115       O  0.17979608  0.62204176  0.52929678    -0.75300
O1116       O  0.13007128  0.54455898  0.51467368    -0.84800
O1117       O  0.10259981  0.59657621  0.52268917    -0.84500
O1118       O  0.03913511  0.97345055  0.51040614    -0.71200
O1119       O  0.03100125  0.52570938  0.52161543    -0.83400
Zr1120     Zr  0.06527417  0.54657896  0.46918076     2.26400
Zr1121     Zr  0.09980660  0.48966634  0.49431034     2.06300
Zr1122     Zr  0.04935188  0.58933264  0.50916612     2.10000
Zr1123     Zr  0.14699673  0.60792652  0.50262780     1.78800
O1124       O  0.49348828  0.58391757  0.51484302    -0.92200
O1125       O  0.20115138  0.60811885  0.49408698    -0.40000
O1126       O  0.09464489  0.60303393  0.48893922    -0.76600
O1127       O  0.11927231  0.55396519  0.48216282    -0.95300
O1128       O  0.04666328  0.48254402  0.48090586    -0.88600
O1129       O  0.01999198  0.53442116  0.48904862    -0.91400
C1130       C  0.17147710  0.61176726  0.54464932     1.02300
C1131       C  0.03841475  0.57339292  0.55207845     1.15300
C1132       C  0.08636423  0.94420819  0.52708200     1.06000
O1133       O  0.15925698  0.49706760  0.49210361    -0.93600
O1134       O  0.11112675  0.48609164  0.46451312    -0.89300
O1135       O  0.09393738  0.52375258  0.44961384    -0.82500
C1136       C  0.10853631  0.50222454  0.45086805     1.12700
O1137       O  0.48060628  0.93340698  0.52783662    -0.95600
Zr1138     Zr  0.98933433  0.97739967  0.49887244     1.88900
O1139       O  0.01015522  0.49676003  0.45421932    -0.72200
O1140       O  0.03655909  0.90732093  0.48021781    -0.51500
O1141       O  0.96114668  0.90530453  0.49239632    -0.96200
O1142       O  0.45728212  0.97559248  0.50984282    -0.53400
O1143       O  0.47877691  0.95676250  0.47684751    -0.72700
C1144       C  0.96137153  0.97158804  0.45778940     0.99600
O1145       O  0.09276674  0.58590586  0.44403067    -0.61500
O1146       O  0.07742084  0.66164879  0.51501566    -0.56300
O1147       O  0.04052540  0.58777598  0.46107510    -0.93000
O1148       O  0.03627633  0.61843219  0.48491887    -0.91500
O1149       O  0.17107282  0.67839015  0.51086013    -0.91800
O1150       O  0.17724746  0.65555092  0.48014107    -0.90600
C1151       C  0.03387388  0.61243408  0.46877232     1.18500
H1152       H  0.11217106  0.61795549  0.53127513     0.34400
H1153       H  0.13761664  0.56033823  0.47390307     0.45300
H1154       H  0.99925429  0.53353474  0.48365235     0.38800
H1155       H  0.02885154  0.94793657  0.51599426     0.35300
H1156       H  0.21954715  0.62351478  0.50321605     0.27000
H1157       H  0.05240219  0.89630577  0.47811472     0.33000
H1158       H  0.51148697  0.90104545  0.49874358     0.38900
H1159       H  0.15173488  0.68365984  0.50743435     0.33400
H1160       H  0.05825699  0.66444309  0.52042318     0.32200
H1161       H  0.49954998  0.60985982  0.52040059     0.33900
H1162       H  0.43704497  0.94930477  0.50531380     0.32900
H1163       H  0.16333003  0.64092116  0.46967185     0.36900
H1164       H  0.07243172  0.57787385  0.43576594     0.29600
H1165       H  0.08724758  0.00769466  0.56336056     0.33800
H1166       H  0.48443915  0.95316504  0.53696097     0.36700
H1167       H  0.09559913  0.66807151  0.52424724     0.29300
H1168       H  0.10146489  0.61437434  0.44729140     0.42200
H1169       H  0.15489419  0.46955428  0.49359924     0.32200
H1170       H  0.19500431  0.57986929  0.49534741     0.39900
H1171       H  0.45744888  0.99576133  0.50222819     0.31700
H1172       H  0.02396760  0.89445115  0.49074227     0.31800
H1173       H  0.04647609  0.97654569  0.55794683     0.32000
C1174       C  0.40085615  0.01069118  0.23975250     0.81200
N1175       N  0.43221431  0.01069914  0.24148501    -0.77100
C1176       C  0.45727724  0.03404963  0.25369274     0.83700
N1177       N  0.42490380  0.52050967  0.27928482    -0.77000
C1178       C  0.40274556  0.53554872  0.27846898     0.83800
N1179       N  0.39468873  0.03469753  0.25012463    -0.78700
C1180       C  0.27582031  0.68826482  0.25902225     0.81200
N1181       N  0.27846713  0.71614280  0.24789232    -0.77100
C1182       C  0.24850741  0.70904567  0.23870169     0.83700
N1183       N  0.21603381  0.67420593  0.24081480    -0.77000
C1184       C  0.21362540  0.64602045  0.25165347     0.83800
N1185       N  0.24348501  0.65334146  0.26061373    -0.78700
C1186       C  0.05897852  0.82239149  0.26412025     0.81200
N1187       N  0.07979325  0.81598775  0.25324221    -0.77100
C1188       C  0.10280241  0.84614642  0.24304517     0.83700
N1189       N  0.10429891  0.88189248  0.24365164    -0.77000
C1190       C  0.08335877  0.88829706  0.25411267     0.83800
N1191       N  0.06063572  0.85853035  0.26449823    -0.78700
C1192       C  0.03993251  0.01808644  0.25898139     0.04100
C1193       C  0.03702638  0.98051929  0.26096373    -0.12000
C1194       C  0.06758591  0.97699691  0.25927510     0.01600
C1195       C  0.10129622  0.01173579  0.25588209    -0.10500
C1196       C  0.11202216  0.56319533  0.25356745     0.04100
C1197       C  0.08035191  0.56458945  0.25523208    -0.10000
H1198       H  0.01116978  0.95411385  0.26391921     0.09700
H1199       H  0.12507819  0.00945037  0.25472639     0.07300
H1200       H  0.08147212  0.59304084  0.25385785     0.07100
Zr1201     Zr  0.23753329  0.85252584  0.19930866     2.17500
O1202       O  0.21254382  0.82705506  0.22703123    -0.50300
O1203       O  0.28377529  0.91077430  0.21620052    -0.73500
O1204       O  0.25754409  0.80986068  0.21183379    -0.80300
O1205       O  0.16662385  0.88142280  0.19176805    -0.82100
O1206       O  0.29194602  0.79990548  0.19323762    -0.77700
O1207       O  0.18608063  0.85306071  0.21101412    -0.89300
O1208       O  0.32692399  0.95343701  0.19831734    -0.75300
O1209       O  0.29348651  0.87874624  0.18516261    -0.84800
O1210       O  0.24605706  0.91045704  0.18478636    -0.84500
O1211       O  0.22833803  0.79798159  0.18068181    -0.71200
O1212       O  0.18613500  0.82887489  0.18019336    -0.83400
Zr1213     Zr  0.24242801  0.85945372  0.13212366     2.26400
Zr1214     Zr  0.28439939  0.82526574  0.16623024     2.06300
Zr1215     Zr  0.19548344  0.88661634  0.16518900     2.10000
Zr1216     Zr  0.30112586  0.93552623  0.17007506     1.78800
O1217       O  0.13049854  0.85702457  0.16002546    -0.92200
O1218       O  0.36522142  0.95993673  0.16633793    -0.40000
O1219       O  0.25107382  0.91357901  0.15051746    -0.76600
O1220       O  0.29426967  0.88331363  0.15107546    -0.95300
O1221       O  0.23378269  0.80179139  0.14674445    -0.88600
O1222       O  0.18656122  0.83344950  0.14626584    -0.91400
C1223       C  0.31488659  0.94189590  0.21314209     1.02300
C1224       C  0.16584070  0.86658655  0.20626555     1.15300
C1225       C  0.27703623  0.79507230  0.20764058     1.06000
O1226       O  0.35032466  0.86044435  0.16946261    -0.93600
O1227       O  0.30592646  0.81953496  0.13884798    -0.89300
O1228       O  0.28424140  0.84423499  0.11889040    -0.82500
C1229       C  0.30369155  0.82978823  0.12371516     1.12700
O1230       O  0.14274614  0.73015405  0.18325219    -0.95600
Zr1231     Zr  0.17851842  0.77643502  0.16115380     1.88900
O1232       O  0.19347916  0.80498643  0.11503076    -0.72200
O1233       O  0.27660210  0.75866956  0.16203016    -0.51500
O1234       O  0.17791695  0.71319920  0.15911276    -0.96200
O1235       O  0.11506383  0.75750541  0.15899475    -0.53400
O1236       O  0.16143206  0.75219129  0.13233070    -0.72700
C1237       C  0.16839751  0.76849293  0.11782390     0.99600
O1238       O  0.27526076  0.89167698  0.10660047    -0.61500
O1239       O  0.20579399  0.95404435  0.17026302    -0.56300
O1240       O  0.22375558  0.90321750  0.11958704    -0.93000
O1241       O  0.18957880  0.91321171  0.13830384    -0.91500
O1242       O  0.30093889  0.99665613  0.17758779    -0.91800
O1243       O  0.32987603  0.98761673  0.14902281    -0.90600
C1244       C  0.20416956  0.91790287  0.12382673     1.18500
H1245       H  0.24729026  0.93047023  0.19266375     0.34400
H1246       H  0.31621333  0.89416744  0.14472156     0.45300
H1247       H  0.16643264  0.82650203  0.13852003     0.38800
H1248       H  0.22283455  0.77395780  0.18663223     0.35300
H1249       H  0.37832048  0.98666614  0.17229787     0.27000
H1250       H  0.29906871  0.76118491  0.16686632     0.33000
H1251       H  0.19889058  0.71933175  0.15208760     0.38900
H1252       H  0.32621622  0.01638004  0.18147055     0.33400
H1253       H  0.20997241  0.95900294  0.18265447     0.32200
H1254       H  0.12782528  0.88007110  0.15695111     0.33900
H1255       H  0.11111034  0.76267085  0.14714378     0.32900
H1256       H  0.33146303  0.97333259  0.13888545     0.36900
H1257       H  0.25647810  0.88472644  0.09760018     0.29600
H1258       H  0.23362582  0.83564411  0.23488244     0.33800
H1259       H  0.12422134  0.70489253  0.17724928     0.36700
H1260       H  0.22981420  0.97244767  0.16542748     0.29300
H1261       H  0.28666743  0.92113266  0.10878906     0.42200
H1262       H  0.35508454  0.84472238  0.17777468     0.32200
H1263       H  0.37011264  0.94237137  0.17346906     0.39900
H1264       H  0.11401726  0.77852189  0.16579956     0.31700
H1265       H  0.25730494  0.74089169  0.16983422     0.31800
H1266       H  0.20027694  0.79721167  0.22602695     0.32000
Zr1267     Zr  0.41595543  0.71869214  0.31094823     2.17500
O1268       O  0.41850147  0.74959330  0.28388891    -0.50300
O1269       O  0.40976488  0.65974937  0.29600599    -0.73500
O1270       O  0.47735143  0.75677941  0.30008038    -0.80300
O1271       O  0.31406556  0.67236357  0.31302890    -0.82100
O1272       O  0.00655371  0.77012179  0.31782564    -0.77700
O1273       O  0.36082075  0.70189129  0.29484587    -0.89300
O1274       O  0.40923324  0.61762227  0.31584453    -0.75300
O1275       O  0.45242100  0.70423006  0.32911085    -0.84800
O1276       O  0.37447583  0.65961213  0.32560138    -0.84500
O1277       O  0.44926626  0.77744019  0.32946862    -0.71200
O1278       O  0.37796784  0.73582175  0.32629728    -0.83400
Zr1279     Zr  0.40664595  0.71847048  0.37825030     2.26400
Zr1280     Zr  0.48480526  0.76189896  0.34809983     2.06300
Zr1281     Zr  0.33760570  0.67677308  0.34141236     2.10000
Zr1282     Zr  0.41061370  0.64502541  0.34361818     1.78800
O1283       O  0.29275566  0.69694416  0.34296535    -0.92200
O1284       O  0.46161377  0.63441130  0.34409802    -0.40000
O1285       O  0.37281189  0.66062558  0.35962678    -0.76600
O1286       O  0.44484523  0.70131334  0.36277456    -0.95300
O1287       O  0.44725543  0.77854723  0.36388056    -0.88600
O1288       O  0.37001333  0.73341527  0.36051723    -0.91400
C1289       C  0.40800769  0.62705852  0.30047191     1.02300
C1290       C  0.32699326  0.68415933  0.29832397     1.15300
C1291       C  0.00173708  0.76713310  0.30168097     1.06000
O1292       O  0.53464951  0.74951636  0.34684008    -0.93600
O1293       O  0.50944673  0.76705663  0.37672810    -0.89300
O1294       O  0.46164404  0.73413152  0.39406072    -0.82500
C1295       C  0.49572855  0.75312571  0.39117793     1.12700
O1296       O  0.41641561  0.83456744  0.32171138    -0.95600
Zr1297     Zr  0.41068304  0.79231111  0.34549628     1.88900
O1298       O  0.40436380  0.77396390  0.39203133    -0.72200
O1299       O  0.52497859  0.83369674  0.35485960    -0.51500
O1300       O  0.46266512  0.86100528  0.34906856    -0.96200
O1301       O  0.35708950  0.79789058  0.34199050    -0.53400
O1302       O  0.40280372  0.81574304  0.37258916    -0.72700
C1303       C  0.40208980  0.80447925  0.38780791     0.99600
O1304       O  0.39644265  0.69995244  0.40796463    -0.61500
O1305       O  0.29321792  0.60619478  0.33420193    -0.56300
O1306       O  0.34916409  0.66156644  0.38734987    -0.93000
O1307       O  0.30563229  0.64671429  0.36705346    -0.91500
O1308       O  0.35694749  0.57713550  0.34250040    -0.91800
O1309       O  0.40728877  0.60497492  0.36780201    -0.90600
C1310       C  0.31605192  0.64261878  0.38179514     1.18500
H1311       H  0.35904877  0.63720208  0.31794139     0.34400
H1312       H  0.45825583  0.69330756  0.36997174     0.45300
H1313       H  0.35312401  0.73700281  0.36705143     0.38800
H1314       H  0.46474869  0.80097856  0.32294881     0.35300
H1315       H  0.45176265  0.60711297  0.33890439     0.27000
H1316       H  0.03209249  0.81179354  0.34985742     0.33000
H1317       H  0.47409355  0.86141275  0.36011362     0.38900
H1318       H  0.36563069  0.55952529  0.33825567     0.33400
H1319       H  0.29884857  0.59056014  0.34217777     0.32200
H1320       H  0.27219289  0.67511192  0.34906179     0.33900
H1321       H  0.34076813  0.78186897  0.35114512     0.32900
H1322       H  0.40493570  0.61938146  0.37769120     0.36900
H1323       H  0.40629779  0.68218078  0.40989706     0.29600
H1324       H  0.42912388  0.73883119  0.27591594     0.33800
H1325       H  0.41332938  0.85635115  0.32648904     0.36700
H1326       H  0.26970971  0.60204028  0.33789727     0.29300
H1327       H  0.41270901  0.72503142  0.41468573     0.42200
H1328       H  0.55687217  0.77645281  0.34879593     0.32200
H1329       H  0.47839978  0.65308622  0.33563152     0.39900
H1330       H  0.34467387  0.78208232  0.33147416     0.31700
H1331       H  0.00683012  0.82331904  0.34014256     0.31800
H1332       H  0.43706563  0.77868308  0.28548530     0.32000
C1333       C  0.08578465  0.92746297  0.25324872    -0.15400
C1334       C  0.06390158  0.93692489  0.26126018    -0.30600
H1335       H  0.10581199  0.94878280  0.24470878     0.13600
H1336       H  0.04198765  0.91438800  0.26874473     0.14200
C1337       C  0.03280668  0.79483270  0.29142947    -0.15400
C1338       C  0.03272330  0.78956119  0.27460040    -0.30600
H1339       H  0.05507797  0.82189711  0.29762394     0.13600
H1340       H  0.01177682  0.76180750  0.26826957     0.14200
C1341       C  0.12614114  0.84104267  0.23112144    -0.15400
C1342       C  0.14028016  0.86655110  0.21820578    -0.30600
H1343       H  0.13180139  0.81703994  0.23287183     0.13600
H1344       H  0.13225758  0.88851321  0.21595282     0.14200
C1345       C  0.17921769  0.60780704  0.25446723    -0.15400
C1346       C  0.14645408  0.60104531  0.24961861    -0.30600
H1347       H  0.18112232  0.58548687  0.26183222     0.13600
H1348       H  0.14467336  0.62488512  0.24343516     0.14200
C1349       C  0.24971327  0.73963274  0.22732024    -0.15400
C1350       C  0.27985652  0.76802915  0.21976494    -0.30600
H1351       H  0.22393463  0.73724857  0.22429488     0.13600
H1352       H  0.30523767  0.76862608  0.22124004     0.14200
C1353       C  0.29991608  0.67572560  0.28484386    -0.15400
C1354       C  0.30654522  0.69688982  0.27060157    -0.30600
H1355       H  0.27217944  0.65251057  0.28758854     0.13600
H1356       H  0.33365096  0.72204799  0.26820029     0.14200
C1357       C  0.97441236  0.99530524  0.25636470    -0.15400
C1358       C  0.00875893  0.02341321  0.26106231    -0.30600
H1359       H  0.51406518  0.06003320  0.26240958     0.13600
H1360       H  0.01669656  0.55883268  0.26563145     0.14200
C1361       C  0.37515882  0.98635195  0.22595410    -0.15400
C1362       C  0.33896148  0.96616932  0.22755475    -0.30600
H1363       H  0.38661548  0.98299470  0.21433534     0.13600
H1364       H  0.32727983  0.96625076  0.23962140     0.14200
C1365       C  0.40930198  0.56773680  0.29062665    -0.15400
C1366       C  0.40286607  0.59731513  0.28713989    -0.30600
H1367       H  0.42123654  0.56769916  0.30286315     0.13600
H1368       H  0.39343360  0.59931936  0.27454730     0.14200
C1369       C  0.21200535  0.93972872  0.41305436    -0.15400
C1370       C  0.18110974  0.93818723  0.40851482    -0.30600
H1371       H  0.23796310  0.96796153  0.41241724     0.13600
H1372       H  0.15516463  0.90992535  0.40879672     0.14200
C1373       C  0.28856556  0.61191963  0.39263925    -0.15400
C1374       C  0.25356738  0.60124209  0.39159042    -0.30600
H1375       H  0.29694239  0.59603923  0.40104596     0.13600
H1376       H  0.24524993  0.61875013  0.38424695     0.14200
C1377       C  0.12606950  0.49761880  0.43604042    -0.15400
C1378       C  0.14343957  0.52753227  0.42495457    -0.30600
H1379       H  0.09834912  0.95416200  0.42894429     0.13600
H1380       H  0.14151894  0.55440040  0.42579067     0.14200
C1381       C  0.11070331  0.79961750  0.43337984    -0.15400
C1382       C  0.14248690  0.80294561  0.43787068    -0.30600
H1383       H  0.11038637  0.82167873  0.42517577     0.13600
H1384       H  0.14249936  0.77870325  0.44463306     0.14200
C1385       C  0.52109873  0.75900715  0.40525322    -0.15400
C1386       C  0.51063674  0.73681676  0.41935664    -0.30600
H1387       H  0.54962928  0.78141599  0.40363217     0.13600
H1388       H  0.48253865  0.71267950  0.42061693     0.14200
C1389       C  0.03340028  0.67404495  0.46272396    -0.15400
C1390       C  0.02452261  0.63660774  0.45794617    -0.30600
H1391       H  0.04582705  0.68598014  0.47518993     0.13600
H1392       H  0.01602427  0.62645233  0.44485439     0.14200
C1393       C  0.30337109  0.88855051  0.42771866    -0.15400
C1394       C  0.27133371  0.85946187  0.42098410    -0.30600
H1395       H  0.30497877  0.91389249  0.43467780     0.13600
H1396       H  0.26837059  0.83203921  0.41542355     0.14200
C1397       C  0.37881730  0.84582479  0.39923436    -0.15400
C1398       C  0.39812111  0.82789399  0.40151877    -0.30600
H1399       H  0.36491351  0.84245182  0.38715303     0.13600
H1400       H  0.40915417  0.82813229  0.41403319     0.14200
C1401       C  0.42253522  0.92828770  0.45178528    -0.15400
C1402       C  0.45786350  0.94580322  0.44836444    -0.30600
H1403       H  0.41430925  0.93166495  0.46433140     0.13600
H1404       H  0.46606995  0.94543143  0.43546190     0.14200
C1405       C  0.41784390  0.58317732  0.58415745    -0.15400
C1406       C  0.43130910  0.60452147  0.57005281    -0.30600
H1407       H  0.39840149  0.58611572  0.59163900     0.13600
H1408       H  0.45100874  0.60117235  0.56293606     0.14200
C1409       C  0.39852171  0.97018149  0.61379511    -0.15400
C1410       C  0.36225820  0.95003263  0.61174517    -0.30600
H1411       H  0.42076573  0.46555554  0.62804225     0.13600
H1412       H  0.35043742  0.95507718  0.60045563     0.14200
C1413       C  0.99813860  0.54532799  0.57609925    -0.15400
C1414       C  0.01955199  0.57709473  0.56648027    -0.30600
H1415       H  0.51586659  0.52390262  0.58162261     0.13600
H1416       H  0.01705101  0.60363327  0.56677292     0.14200
C1417       C  0.99610513  0.76707654  0.55659098    -0.15400
C1418       C  0.02635750  0.77257769  0.56439488    -0.30600
H1419       H  0.99567027  0.79275888  0.55150033     0.13600
H1420       H  0.02593325  0.74775610  0.57084243     0.14200
C1421       C  0.14092246  0.85571168  0.59514114    -0.15400
C1422       C  0.13116491  0.82613965  0.60635695    -0.30600
H1423       H  0.16809408  0.88241208  0.59567827     0.13600
H1424       H  0.10331170  0.80074049  0.60641239     0.14200
C1425       C  0.10097006  0.91687455  0.55216100    -0.15400
C1426       C  0.08700621  0.91194593  0.53636124    -0.30600
H1427       H  0.11582785  0.94666541  0.55828576     0.13600
H1428       H  0.07459078  0.88245270  0.52999197     0.14200
C1429       C  0.35998637  0.70568347  0.57357465    -0.15400
C1430       C  0.36090817  0.67416271  0.56688455    -0.30600
H1431       H  0.38462943  0.73225510  0.57857003     0.13600
H1432       H  0.33565355  0.64628042  0.56348818     0.14200
C1433       C  0.28332570  0.74391861  0.60340562    -0.15400
C1434       C  0.25790255  0.75400120  0.60252041    -0.30600
H1435       H  0.30137124  0.75264184  0.61450678     0.13600
H1436       H  0.24188074  0.74842685  0.59090985     0.14200
C1437       C  0.19999129  0.63402472  0.55774610    -0.15400
C1438       C  0.23506929  0.65127940  0.55391703    -0.30600
H1439       H  0.19226773  0.63629543  0.57055128     0.13600
H1440       H  0.24249052  0.64614864  0.54145630     0.14200
C1441       C  0.05926439  0.62316690  0.75919225    -0.15400
C1442       C  0.08285841  0.61259145  0.75412341    -0.30600
H1443       H  0.03660222  0.60334527  0.76697387     0.13600
H1444       H  0.10629182  0.63375656  0.74699618     0.14200
C1445       C  0.12155379  0.74936486  0.72870257    -0.15400
C1446       C  0.11577379  0.76197329  0.71392885    -0.30600
H1447       H  0.14829570  0.75454106  0.73191882     0.13600
H1448       H  0.08828557  0.75333637  0.71003226     0.14200
C1449       C  0.00920781  0.70983924  0.75934982    -0.15400
C1450       C  0.49844404  0.72681042  0.77063933    -0.30600
H1451       H  0.45826113  0.69412453  0.75157316     0.13600
H1452       H  0.52723308  0.74140773  0.77401768     0.14200
C1453       C  0.13745149  0.49637048  0.74897057    -0.15400
C1454       C  0.13711128  0.52726445  0.75678908    -0.30600
H1455       H  0.11306938  0.47219376  0.74259054     0.13600
H1456       H  0.16219913  0.55268617  0.76212390     0.14200
C1457       C  0.26370371  0.55246325  0.76772090    -0.15400
C1458       C  0.26035212  0.57271447  0.78075005    -0.30600
H1459       H  0.28984250  0.55578513  0.76523863     0.13600
H1460       H  0.23377089  0.56693465  0.78417650     0.14200
C1461       C  0.23224632  0.95156022  0.72396750    -0.15400
C1462       C  0.20825642  0.96369015  0.72319257    -0.30600
H1463       H  0.24811867  0.95598640  0.73551877     0.13600
H1464       H  0.19010621  0.95584287  0.71217590     0.14200
C1465       C  0.47854758  0.92936427  0.74642448    -0.15400
C1466       C  0.48495168  0.95729565  0.73486827    -0.30600
H1467       H  0.50073885  0.93182715  0.75417042     0.13600
H1468       H  0.00158186  0.43854129  0.77008957     0.14200
C1469       C  0.37246682  0.77301799  0.77761973    -0.15400
C1470       C  0.39423104  0.81328925  0.77921823    -0.30600
H1471       H  0.35731564  0.75939728  0.76580702     0.13600
H1472       H  0.41243054  0.82629594  0.79026039     0.14200
C1473       C  0.35560684  0.88868869  0.72079568    -0.15400
C1474       C  0.34853229  0.86110900  0.73271013    -0.30600
H1475       H  0.38328594  0.91350964  0.71914552     0.13600
H1476       H  0.32111622  0.83551960  0.73408084     0.14200
C1477       C  0.03335379  0.75590688  0.88397912    -0.15400
C1478       C  0.02992469  0.77174104  0.89846219    -0.30600
H1479       H  0.05999023  0.76245060  0.88022977     0.13600
H1480       H  0.00382427  0.76785278  0.90155337     0.14200
C1481       C  0.08469405  0.87577341  0.94319084    -0.15400
C1482       C  0.06317311  0.89069798  0.94031337    -0.30600
H1483       H  0.10099167  0.88365104  0.95485945     0.13600
H1484       H  0.04935582  0.88587566  0.92808317     0.14200
C1485       C  0.15656436  0.82503456  0.91851578    -0.15400
C1486       C  0.15926541  0.79466263  0.91182945    -0.30600
H1487       H  0.18004430  0.85043161  0.92491683     0.13600
H1488       H  0.13506324  0.76767597  0.90674633     0.14200
C1489       C  0.24788071  0.71091893  0.91578535    -0.15400
C1490       C  0.22156867  0.71805621  0.92002002    -0.30600
H1491       H  0.27228565  0.73398573  0.90986182     0.13600
H1492       H  0.19641966  0.69370501  0.92499030     0.14200
C1493       C  0.29497559  0.62322892  0.90550677    -0.15400
C1494       C  0.28540004  0.60128435  0.89099553    -0.30600
H1495       H  0.32338997  0.64583432  0.90811980     0.13600
H1496       H  0.25665343  0.58175805  0.88767944     0.14200
C1497       C  0.17999920  0.57266275  0.93573738    -0.15400
C1498       C  0.18291114  0.55113614  0.94814123    -0.30600
H1499       H  0.15477008  0.57231065  0.93393556     0.13600
H1500       H  0.20918712  0.55479123  0.95115100     0.14200
C1501       C  0.32677476  0.87552739  0.91846122    -0.15400
C1502       C  0.29519904  0.86842238  0.91142752    -0.30600
H1503       H  0.32717524  0.85428752  0.92714414     0.13600
H1504       H  0.29506899  0.89143532  0.90375318     0.14200
C1505       C  0.40435355  0.51629067  0.87991167    -0.15400
C1506       C  0.41578867  0.55516138  0.88353348    -0.30600
H1507       H  0.39160240  0.50308741  0.86761879     0.13600
H1508       H  0.42530402  0.56734750  0.89632122     0.14200
C1509       C  0.45760082  0.96444383  0.93099004    -0.15400
C1510       C  0.45452615  0.94741042  0.94604226    -0.30600
H1511       H  0.48370660  0.50475235  0.92534100     0.13600
H1512       H  0.42762469  0.92629672  0.95063173     0.14200
C1513       C  0.34248326  0.62163352  0.06314665    -0.15400
C1514       C  0.33538101  0.58933652  0.07214997    -0.30600
H1515       H  0.32027054  0.62318934  0.05725109     0.13600
H1516       H  0.35717397  0.58904855  0.07915683     0.14200
C1517       C  0.19948421  0.94368498  0.11157841    -0.15400
C1518       C  0.22365756  0.96248629  0.09939922    -0.30600
H1519       H  0.17884420  0.95120323  0.11381960     0.13600
H1520       H  0.24610500  0.95744537  0.09822093     0.14200
C1521       C  0.20680612  0.51865878  0.05605059    -0.15400
C1522       C  0.17104056  0.49292861  0.05760612    -0.30600
H1523       H  0.21618682  0.53843084  0.04527452     0.13600
H1524       H  0.19887041  0.07851553  0.05273207     0.14200
C1525       C  0.39441168  0.77527491  0.07796098    -0.15400
C1526       C  0.41864398  0.77115915  0.06914206    -0.30600
H1527       H  0.37315485  0.74977891  0.08460095     0.13600
H1528       H  0.44131827  0.79726488  0.06343889     0.14200
C1529       C  0.34051083  0.85083609  0.09828351    -0.15400
C1530       C  0.32607910  0.82546119  0.11120920    -0.30600
H1531       H  0.33502325  0.87497417  0.09651821     0.13600
H1532       H  0.33376900  0.80331791  0.11370490     0.14200
C1533       C  0.43933324  0.91098678  0.05741777    -0.15400
C1534       C  0.47312443  0.91829886  0.05578597    -0.30600
H1535       H  0.42951034  0.92706013  0.05005692     0.13600
H1536       H  0.48298009  0.90392363  0.06426340     0.14200
C1537       C  0.50665237  0.71356425  0.07438752    -0.15400
C1538       C  0.47761221  0.68987965  0.06422951    -0.30600
H1539       H  0.50639419  0.73534083  0.08311886     0.13600
H1540       H  0.47678733  0.66590083  0.05653976     0.14200
C1541       C  0.14369552  0.74424115  0.10375804    -0.15400
C1542       C  0.12487650  0.70380697  0.10416773    -0.30600
H1543       H  0.13763627  0.75962447  0.09401520     0.13600
H1544       H  0.13225484  0.68806639  0.11315171     0.14200
C1545       C  0.07110150  0.57721994  0.06499454    -0.15400
C1546       C  0.04793422  0.59040877  0.06530351    -0.30600
H1547       H  0.09195575  0.58584760  0.07483935     0.13600
H1548       H  0.02632301  0.57955224  0.05564402     0.14200
C1549       C  0.58039818  0.19801047  0.09063665     0.81200
N1550       N  0.58677771  0.17729786  0.07862339    -0.77100
C1551       C  0.56273783  0.15894407  0.06540585     0.83700
N1552       N  0.53258365  0.16164291  0.06417881    -0.77000
C1553       C  0.06232857  0.22382872  0.07836752     0.83800
N1554       N  0.55014601  0.20025498  0.08947617    -0.78700
C1555       C  0.91800143  0.36193423  0.08015994     0.81200
N1556       N  0.92094468  0.32928293  0.08282132    -0.77100
C1557       C  0.89683389  0.29885995  0.09249605     0.83700
N1558       N  0.87005021  0.30170880  0.09978552    -0.77000
C1559       C  0.86711065  0.33464796  0.09741055     0.83800
N1560       N  0.89101125  0.36474904  0.08740909    -0.78700
C1561       C  0.73291904  0.02614469  0.07612618     0.81200
N1562       N  0.70888815  0.50131775  0.08955522    -0.77100
C1563       C  0.73819919  0.50343410  0.09750738     0.83700
N1564       N  0.79185704  0.03331156  0.09272071    -0.77000
C1565       C  0.79583909  0.06303204  0.08243921     0.83800
N1566       N  0.76641141  0.05920840  0.07420684    -0.78700
C1567       C  0.96151823  0.18854099  0.08381638     0.04100
C1568       C  0.92959185  0.15049857  0.08494304    -0.12000
C1569       C  0.89608774  0.14735002  0.08728884     0.01600
C1570       C  0.89481302  0.18273122  0.08920815    -0.10500
C1571       C  0.92641496  0.22098150  0.08804347     0.04100
C1572       C  0.95956456  0.22360521  0.08524220    -0.10000
H1573       H  0.93063516  0.12323911  0.08346365     0.09700
H1574       H  0.86896217  0.18025731  0.09107788     0.07300
H1575       H  0.98349492  0.25311796  0.08358189     0.07100
C1576       C  0.89868388  0.98762420  0.88650859     0.81200
N1577       N  0.86792973  0.45276636  0.89557283    -0.77100
C1578       C  0.86315413  0.42537304  0.90734355     0.83700
N1579       N  0.89063768  0.43398145  0.91849829    -0.77000
C1580       C  0.92271197  0.46987319  0.91825820     0.83800
N1581       N  0.92558572  0.99862026  0.89855055    -0.78700
C1582       C  0.72234830  0.11642517  0.92001824     0.81200
N1583       N  0.72371080  0.15173629  0.91731720    -0.77100
C1584       C  0.75313764  0.18303420  0.91019410     0.83700
N1585       N  0.78106544  0.17871253  0.90565173    -0.77000
C1586       C  0.77974945  0.14338070  0.90794821     0.83800
N1587       N  0.75027769  0.11196678  0.91513192    -0.78700
C1588       C  0.69653247  0.30135781  0.90390618     0.04100
C1589       C  0.69677963  0.26577367  0.90633583    -0.12000
C1590       C  0.72947727  0.26621722  0.90695887     0.01600
C1591       C  0.76232840  0.30304630  0.90489601    -0.10500
C1592       C  0.76265394  0.33915520  0.90241987     0.04100
C1593       C  0.72950704  0.33798893  0.90177611    -0.10000
H1594       H  0.67133330  0.23766590  0.90812444     0.09700
H1595       H  0.78775193  0.30391489  0.90538328     0.07300
H1596       H  0.72938823  0.36558870  0.89987025     0.07100
C1597       C  0.55854915  0.28970503  0.90963284     0.81200
N1598       N  0.55580238  0.31357499  0.92149294    -0.77100
C1599       C  0.58543561  0.34055571  0.93098942     0.83700
N1600       N  0.61783999  0.34355374  0.92863436    -0.77000
C1601       C  0.62101280  0.32024720  0.91664754     0.83800
N1602       N  0.59124873  0.29322485  0.90718585    -0.78700
Zr1603     Zr  0.57232522  0.50960795  0.03207802     2.17500
O1604       O  0.56445474  0.47744581  0.05934262    -0.50300
O1605       O  0.59169546  0.06148806  0.04683000    -0.73500
O1606       O  0.62922271  0.52537260  0.04597480    -0.80300
O1607       O  0.95454559  0.41668206  0.02550667    -0.82100
O1608       O  0.68759579  0.04669876  0.02469287    -0.77700
O1609       O  0.99801053  0.43365173  0.04614292    -0.89300
O1610       O  0.58825638  0.10151702  0.02707765    -0.75300
O1611       O  0.62720863  0.05917259  0.01555148    -0.84800
O1612       O  0.53684647  0.52881408  0.01568132    -0.84500
O1613       O  0.60084410  0.48182428  0.01543755    -0.71200
O1614       O  0.52988505  0.45043802  0.01562999    -0.83400
Zr1615     Zr  0.56638544  0.49808792  0.96464450     2.26400
Zr1616     Zr  0.65579239  0.03454407  0.99750385     2.06300
Zr1617     Zr  0.98576782  0.44325842  0.99919749     2.10000
Zr1618     Zr  0.58937025  0.07544916  0.99954971     1.78800
O1619       O  0.93204650  0.37678274  0.99326902    -0.92200
O1620       O  0.64385189  0.14261817  0.00239562    -0.40000
O1621       O  0.54752806  0.01782185  0.98249092    -0.76600
O1622       O  0.61951240  0.05332856  0.98120107    -0.95300
O1623       O  0.60056426  0.47846448  0.98149537    -0.88600
O1624       O  0.52367320  0.44368417  0.98138726    -0.91400
C1625       C  0.58959563  0.09197484  0.04238342     1.02300
C1626       C  0.96481407  0.41763800  0.04095372     1.15300
C1627       C  0.67827657  0.03647811  0.03999487     1.06000
O1628       O  0.70214507  0.10626293  0.99801728    -0.93600
O1629       O  0.68111869  0.04638101  0.96958221    -0.89300
O1630       O  0.63496694  0.02914213  0.95039584    -0.82500
C1631       C  0.66873715  0.04451826  0.95451209     1.12700
O1632       O  0.54823316  0.38288980  0.02278967    -0.95600
Zr1633     Zr  0.55828053  0.42458797  0.99825431     1.88900
O1634       O  0.55612077  0.43610810  0.95092328    -0.72200
O1635       O  0.68437743  0.51324675  0.99688364    -0.51500
O1636       O  0.60348752  0.40511359  0.00103518    -0.96200
O1637       O  0.49965628  0.36141779  0.99551394    -0.53400
O1638       O  0.56278057  0.39887665  0.97103507    -0.72700
C1639       C  0.55942803  0.40657963  0.95563105     0.99600
O1640       O  0.57274833  0.02205843  0.93815860    -0.61500
O1641       O  0.95072786  0.47498454  0.00483190    -0.56300
O1642       O  0.51024208  0.48621684  0.95132573    -0.93000
O1643       O  0.96091241  0.44650037  0.97185067    -0.91500
O1644       O  0.53667034  0.08275229  0.99717738    -0.91800
O1645       O  0.59614917  0.12066855  0.97687644    -0.90600
C1646       C  0.47735386  0.47066796  0.95600996     1.18500
H1647       H  0.52385256  0.53717579  0.02286202     0.34400
H1648       H  0.63460056  0.07522167  0.97387045     0.45300
H1649       H  0.50569174  0.42146974  0.97429640     0.38800
H1650       H  0.61384789  0.47308715  0.02256120     0.35300
H1651       H  0.63563498  0.15993014  0.00748992     0.27000
H1652       H  0.72516773  0.04181516  0.99640489     0.33000
H1653       H  0.62194091  0.42140023  0.99262566     0.38900
H1654       H  0.54338696  0.10745503  0.00398335     0.33400
H1655       H  0.96125643  0.49880434  0.99751322     0.32200
H1656       H  0.91327806  0.38220706  0.98900651     0.33900
H1657       H  0.49417457  0.35631448  0.98319155     0.32900
H1658       H  0.59822612  0.10752055  0.96647628     0.36900
H1659       H  0.59142911  0.05125148  0.93906439     0.29600
H1660       H  0.57966060  0.49948639  0.06769949     0.33800
H1661       H  0.54362165  0.35666479  0.01817789     0.36700
H1662       H  0.92637315  0.45613857  0.99967807     0.29300
H1663       H  0.58145220  0.01080120  0.92939238     0.42200
H1664       H  0.69347060  0.11832085  0.98961259     0.32200
H1665       H  0.65878524  0.14036090  0.01148244     0.39900
H1666       H  0.48190683  0.36821826  0.99972078     0.31700
H1667       H  0.67584141  0.49162591  0.00528360     0.31800
H1668       H  0.57621641  0.46132096  0.05841345     0.32000
C1669       C  0.89855293  0.35973438  0.76863460     0.81200
N1670       N  0.87141419  0.35330409  0.75747105    -0.77100
C1671       C  0.87740661  0.38199795  0.74598240     0.83700
N1672       N  0.91060386  0.41637761  0.74561656    -0.77000
C1673       C  0.93763166  0.42253954  0.75654702     0.83800
N1674       N  0.93138734  0.39439109  0.76815952    -0.78700
C1675       C  0.73800425  0.06021856  0.75113428     0.81200
N1676       N  0.70992763  0.06672555  0.75022294    -0.77100
C1677       C  0.68112316  0.04357488  0.73952784     0.83700
N1678       N  0.68056325  0.01394869  0.72984719    -0.77000
C1679       C  0.70830425  0.00709758  0.73097953     0.83800
N1680       N  0.73714188  0.03058827  0.74148981    -0.78700
C1681       C  0.55748856  0.21500544  0.72612684     0.81200
N1682       N  0.55918230  0.18096963  0.72703411    -0.77100
C1683       C  0.53664265  0.15059056  0.73717447     0.83700
N1684       N  0.51293500  0.15465469  0.74668022    -0.77000
C1685       C  0.51095029  0.18838346  0.74593400     0.83800
N1686       N  0.53312250  0.21869621  0.73554670    -0.78700
C1687       C  0.58658382  0.02701287  0.73114214     0.04100
C1688       C  0.55257126  0.99166135  0.73267525    -0.12000
C1689       C  0.52104434  0.99353253  0.73288151     0.01600
C1690       C  0.52350065  0.03069438  0.73120495    -0.10500
C1691       C  0.55743767  0.06654999  0.73017738     0.04100
C1692       C  0.58896123  0.06452029  0.72983029    -0.10000
H1693       H  0.55292856  0.47949783  0.75916150     0.09700
H1694       H  0.00960258  0.03332315  0.75892866     0.07300
H1695       H  0.61514038  0.09200870  0.72860183     0.07100
Zr1696     Zr  0.89313001  0.17879516  0.79309057     2.17500
O1697       O  0.88939116  0.15385367  0.76412938    -0.50300
O1698       O  0.88658427  0.23363903  0.78240760    -0.73500
O1699       O  0.83080270  0.13711485  0.78258740    -0.80300
O1700       O  0.99664015  0.23175730  0.79364067    -0.82100
O1701       O  0.79280770  0.11611210  0.80474657    -0.77700
O1702       O  0.94661293  0.20194821  0.77605512    -0.89300
O1703       O  0.89245466  0.27495922  0.80450818    -0.75300
O1704       O  0.85897084  0.18952358  0.81349928    -0.84800
O1705       O  0.93565004  0.23699361  0.80948704    -0.84500
O1706       O  0.86350497  0.11748000  0.80882387    -0.74800
O1707       O  0.93390620  0.16108836  0.80568181    -0.83400
Zr1708     Zr  0.91350748  0.17098834  0.85940743     2.26400
Zr1709     Zr  0.83064426  0.12969437  0.82982890     2.06300
Zr1710     Zr  0.97589045  0.21934276  0.82242176     2.10000
Zr1711     Zr  0.90136191  0.24707708  0.83013282     1.78800
O1712       O  0.02297583  0.20380216  0.81732963    -0.92200
O1713       O  0.84699006  0.24981970  0.83506259    -0.40000
O1714       O  0.94327791  0.23194167  0.84348401    -0.76600
O1715       O  0.87213126  0.18798014  0.84681233    -0.95300
O1716       O  0.87093440  0.11254660  0.84312475    -0.88600
O1717       O  0.94744749  0.15976057  0.83896543    -0.91400
C1718       C  0.88752619  0.26494400  0.78870113     1.02300
C1719       C  0.98110603  0.22041667  0.77893739     1.15300
C1720       C  0.79908938  0.11926975  0.78891117     1.06000
O1721       O  0.78273272  0.14327749  0.83604124    -0.93600
O1722       O  0.80973561  0.11211993  0.85842109    -0.89300
O1723       O  0.85922441  0.14362656  0.87636237    -0.82500
C1724       C  0.82472402  0.12274699  0.87325551     1.12700
O1725       O  0.89969995  0.06243115  0.79712173    -0.95600
Zr1726     Zr  0.90471690  0.10182879  0.82251803     1.88900
O1727       O  0.92097183  0.11708246  0.87030911    -0.72200
O1728       O  0.79058187  0.05660582  0.82703552    -0.51500
O1729       O  0.85063280  0.03422655  0.82229180    -0.96200
O1730       O  0.95762152  0.09587311  0.81795367    -0.53400
O1731       O  0.91017315  0.07265996  0.84864203    -0.72700
C1732       C  0.91684222  0.08392070  0.86432336     0.99600
O1733       O  0.91663105  0.19483781  0.88851411    -0.61500
O1734       O  0.01775891  0.29236976  0.82339837    -0.56300
O1735       O  0.97568744  0.21718647  0.86958336    -0.93000
O1736       O  0.01392073  0.23658142  0.84753907    -0.91500
O1737       O  0.95220731  0.31673891  0.83033092    -0.91800
O1738       O  0.90406232  0.28260168  0.85633134    -0.90600
C1739       C  0.00748626  0.23547664  0.86330148     1.18500
H1740       H  0.94866886  0.26028727  0.80248817     0.34400
H1741       H  0.85919773  0.19285667  0.85543407     0.45300
H1742       H  0.96551144  0.15561554  0.84437758     0.38800
H1743       H  0.84696034  0.09476172  0.80152876     0.35300
H1744       H  0.85209249  0.27568005  0.83024465     0.27000
H1745       H  0.79504280  0.04603355  0.83755343     0.33000
H1746       H  0.85893952  0.01667269  0.82695077     0.38900
H1747       H  0.94095685  0.33310357  0.82832416     0.33400
H1748       H  0.50795215  0.27501340  0.83897891     0.32200
H1749       H  0.53746801  0.19713442  0.83359663     0.33900
H1750       H  0.97344969  0.10813043  0.82820584     0.32900
H1751       H  0.91248202  0.27099041  0.86508154     0.36900
H1752       H  0.93376129  0.18943891  0.89474189     0.29600
H1753       H  0.87531862  0.16295925  0.75751801     0.33800
H1754       H  0.90025667  0.03864378  0.80116108     0.36700
H1755       H  0.01020970  0.30266345  0.81375378     0.29300
H1756       H  0.92921619  0.22466687  0.88800424     0.42200
H1757       H  0.75990723  0.11894478  0.83186497     0.32200
H1758       H  0.82804598  0.22872837  0.82734785     0.39900
H1759       H  0.97089839  0.11502698  0.80886853     0.31700
H1760       H  0.76581970  0.05184746  0.82815865     0.31800
H1761       H  0.87345818  0.12407046  0.76448585     0.32000
C1762       C  0.77270107  0.19773494  0.56657351     0.81200
N1763       N  0.76504168  0.21747654  0.57855155    -0.77100
C1764       C  0.79100874  0.24225541  0.59021215     0.83700
N1765       N  0.82435696  0.24666095  0.59004270    -0.77000
C1766       C  0.83203932  0.22703979  0.57805571     0.83800
N1767       N  0.80621713  0.20286740  0.56625267    -0.78700
C1768       C  0.60615778  0.33736681  0.57739933     0.81200
N1769       N  0.61280919  0.36627536  0.56596653    -0.77100
C1770       C  0.58966171  0.35746658  0.55240262     0.83700
N1771       N  0.55993361  0.31981430  0.55038519    -0.77000
C1772       C  0.55315624  0.29095771  0.56174893     0.83800
N1773       N  0.57632508  0.29976945  0.57518168    -0.78700
C1774       C  0.92075126  0.01378509  0.60444271     0.81200
N1775       N  0.91130214  0.04167719  0.60106277    -0.77100
C1776       C  0.93036211  0.07113557  0.58985158     0.83700
N1777       N  0.45853835  0.05818272  0.57860969    -0.77000
C1778       C  0.96785755  0.04445163  0.58498140     0.83800
N1779       N  0.94905936  0.01512211  0.59635939    -0.78700
C1780       C  0.90698179  0.20397642  0.57144101     0.04100
C1781       C  0.90756189  0.16849919  0.57392310    -0.12000
C1782       C  0.94038012  0.16929849  0.57331311     0.01600
C1783       C  0.97233096  0.20559978  0.56981694    -0.10500
C1784       C  0.97230135  0.24163714  0.56793940     0.04100
C1785       C  0.93941827  0.24051963  0.56852563    -0.10000
H1786       H  0.88243948  0.14037580  0.57608775     0.09700
H1787       H  0.48081137  0.16846364  0.55292255     0.07300
H1788       H  0.93914050  0.26806358  0.56674704     0.07100
Zr1789     Zr  0.73623190  0.35662383  0.69768234     2.17500
O1790       O  0.73038009  0.31969258  0.72342808    -0.50300
O1791       O  0.73421667  0.40737393  0.71549141    -0.73500
O1792       O  0.79418308  0.37591392  0.71185737    -0.80300
O1793       O  0.63284169  0.28863106  0.68804077    -0.82100
O1794       O  0.83951368  0.40999685  0.69333000    -0.77700
O1795       O  0.67752066  0.30512865  0.70800443    -0.89300
O1796       O  0.73029357  0.45139869  0.69818180    -0.75300
O1797       O  0.77560016  0.41915673  0.68451773    -0.84800
O1798       O  0.69777587  0.37386440  0.68271869    -0.84500
O1799       O  0.77316647  0.34328319  0.67950752    -0.71200
O1800       O  0.70056541  0.30206749  0.67765877    -0.83400
Zr1801     Zr  0.73904797  0.36893462  0.63073504     2.26400
Zr1802     Zr  0.81160556  0.40589754  0.66574740     2.06300
Zr1803     Zr  0.66330496  0.32071097  0.66217276     2.10000
Zr1804     Zr  0.73707580  0.43568126  0.66929803     1.78800
O1805       O  0.61559124  0.25093874  0.65589052    -0.92200
O1806       O  0.78936643  0.50354317  0.67469834    -0.40000
O1807       O  0.70217220  0.38300570  0.64852618    -0.76600
O1808       O  0.77404127  0.42460026  0.65048005    -0.95300
O1809       O  0.77722144  0.35155317  0.64566838    -0.88600
O1810       O  0.69940254  0.30677565  0.64390286    -0.91400
C1811       C  0.73061281  0.43774580  0.71282613     1.02300
C1812       C  0.64412967  0.28598768  0.70284812     1.15300
C1813       C  0.82781061  0.39537450  0.70793978     1.06000
O1814       O  0.85836867  0.47585064  0.67251907    -0.93600
O1815       O  0.84207962  0.43726566  0.63963818    -0.89300
O1816       O  0.79731037  0.41760269  0.61946107    -0.82500
C1817       C  0.83061828  0.43773975  0.62455333     1.12700
O1818       O  0.72906688  0.24137807  0.68076501    -0.95600
Zr1819     Zr  0.73760204  0.29001232  0.65928931     1.88900
O1820       O  0.74316238  0.31887628  0.61348569    -0.72200
O1821       O  0.85379166  0.38325380  0.66020158    -0.51500
O1822       O  0.78901679  0.28072196  0.66326181    -0.96200
O1823       O  0.68674692  0.22289841  0.65113768    -0.53400
O1824       O  0.75127167  0.27832059  0.63117152    -0.72700
C1825       C  0.75001786  0.29100395  0.61645294     0.99600
O1826       O  0.73415524  0.39580092  0.60368452    -0.61500
O1827       O  0.62179862  0.34441351  0.66736392    -0.56300
O1828       O  0.68259229  0.35129531  0.61620673    -0.93000
O1829       O  0.63632738  0.31654190  0.63416561    -0.91500
O1830       O  0.68339400  0.44132329  0.66732908    -0.91800
O1831       O  0.74314563  0.48653149  0.64956788    -0.90600
C1832       C  0.64878371  0.33118289  0.61962060     1.18500
H1833       H  0.68149732  0.37621980  0.69022816     0.34400
H1834       H  0.78870676  0.44967800  0.64477563     0.45300
H1835       H  0.68426696  0.28608040  0.63550303     0.38800
H1836       H  0.78743559  0.33504501  0.68589483     0.35300
H1837       H  0.78601896  0.01547905  0.67313594     0.27000
H1838       H  0.87764242  0.40841022  0.65898179     0.33000
H1839       H  0.80650958  0.29766960  0.65463495     0.38900
H1840       H  0.67350129  0.43607131  0.67885145     0.33400
H1841       H  0.62296610  0.35961694  0.65717880     0.32200
H1842       H  0.59270231  0.25105840  0.65635781     0.33900
H1843       H  0.68224694  0.22379986  0.63886278     0.32900
H1844       H  0.75187427  0.48064410  0.63903742     0.36900
H1845       H  0.74790641  0.42560587  0.60524322     0.29600
H1846       H  0.74274764  0.34040779  0.73262647     0.33800
H1847       H  0.72780521  0.21824604  0.67456689     0.36700
H1848       H  0.59730219  0.31969158  0.66664014     0.29300
H1849       H  0.74824243  0.38990502  0.59561069     0.42200
H1850       H  0.88161424  0.47688344  0.67108949     0.32200
H1851       H  0.80903231  0.50456290  0.66801782     0.39900
H1852       H  0.66550241  0.22117638  0.65659650     0.31700
H1853       H  0.85620401  0.37194584  0.67096633     0.31800
H1854       H  0.74548425  0.30750293  0.72190838     0.32000
C1855       C  0.89837093  0.38408205  0.43374428     0.81200
N1856       N  0.89412271  0.35455690  0.42282667    -0.77100
C1857       C  0.86550920  0.33729047  0.41157396     0.83700
N1858       N  0.84080766  0.34893772  0.41162466    -0.77000
C1859       C  0.84469461  0.37795125  0.42280535     0.83800
N1860       N  0.87385489  0.39600896  0.43362810    -0.78700
C1861       C  0.03861741  0.24373675  0.42474291     0.81200
N1862       N  0.03396965  0.21698922  0.43682543    -0.77100
C1863       C  0.55598330  0.21194751  0.45288418     0.83700
N1864       N  0.58811355  0.24730685  0.45162872    -0.77000
C1865       C  0.59139284  0.27507587  0.44042695     0.83800
N1866       N  0.56244490  0.26760604  0.43066249    -0.78700
C1867       C  0.71517726  0.04606658  0.39353133     0.81200
N1868       N  0.71345729  0.01011489  0.39210860    -0.77100
C1869       C  0.69636773  0.48416178  0.40775717     0.83700
N1870       N  0.66863140  0.48528471  0.41485088    -0.77000
C1871       C  0.66435066  0.01622553  0.41098203     0.83800
N1872       N  0.69060912  0.04923811  0.40300822    -0.78700
C1873       C  0.75292560  0.36977264  0.42338137     0.04100
C1874       C  0.75624775  0.40635861  0.41855135    -0.12000
C1875       C  0.72764514  0.41291745  0.42114213     0.01600
C1876       C  0.69725142  0.38423473  0.42988662    -0.10500
C1877       C  0.69281793  0.34686918  0.43396433     0.04100
C1878       C  0.72087544  0.33984519  0.43066672    -0.10000
H1879       H  0.78028089  0.42883347  0.41221345     0.09700
H1880       H  0.67689500  0.39110783  0.43343345     0.07300
H1881       H  0.71781140  0.31105447  0.43377680     0.07100
Zr1882     Zr  0.59670776  0.03643241  0.53607160     2.17500
O1883       O  0.55098721  0.48310321  0.55820040    -0.50300
O1884       O  0.65264661  0.08983150  0.54997422    -0.73500
O1885       O  0.60623541  0.48364783  0.54209420    -0.80300
O1886       O  0.54943384  0.09438392  0.54126411    -0.82100
O1887       O  0.60589869  0.45155076  0.51768732    -0.77700
O1888       O  0.55775325  0.04759635  0.55418610    -0.89300
O1889       O  0.68962231  0.13108771  0.52979362    -0.75300
O1890       O  0.64027098  0.04693747  0.51543424    -0.84800
O1891       O  0.61432086  0.10011339  0.52403198    -0.84500
O1892       O  0.55292800  0.47299363  0.51430630    -0.71200
O1893       O  0.54215062  0.02921177  0.52387838    -0.83400
Zr1894     Zr  0.57327826  0.04757129  0.47076053     2.26400
Zr1895     Zr  0.60882380  0.99118676  0.49546030     2.06300
Zr1896     Zr  0.56039258  0.09246253  0.51129260     2.10000
Zr1897     Zr  0.65687909  0.10997751  0.50306188     1.78800
O1898       O  0.99860981  0.10331884  0.50907002    -0.92200
O1899       O  0.71416539  0.11368071  0.49803685    -0.40000
O1900       O  0.60371029  0.10424892  0.49021808    -0.76600
O1901       O  0.62781945  0.05495171  0.48301048    -0.95300
O1902       O  0.55490218  0.98399468  0.48293761    -0.88600
O1903       O  0.52978562  0.03738016  0.49132298    -0.91400
C1904       C  0.68254276  0.12025903  0.54514864     1.02300
C1905       C  0.54641776  0.07232474  0.55384996     1.15300
C1906       C  0.60895390  0.45662237  0.53390324     1.06000
O1907       O  0.66893111  0.00039515  0.49309833    -0.93600
O1908       O  0.61714714  0.98606847  0.46523472    -0.89300
O1909       O  0.59716248  0.02103898  0.45028537    -0.82500
C1910       C  0.61224256  0.00002750  0.45142171     1.12700
O1911       O  0.96898532  0.43282355  0.52552054    -0.95600
Zr1912     Zr  0.50177927  0.47124477  0.50110086     1.88900
O1913       O  0.51716825  0.99658946  0.45664126    -0.72200
O1914       O  0.56896241  0.41515185  0.48593487    -0.51500
O1915       O  0.48157092  0.39997605  0.49692392    -0.96200
O1916       O  0.94532590  0.46888622  0.50503150    -0.53400
O1917       O  0.97305791  0.45161165  0.47341440    -0.72700
C1918       C  0.48054845  0.47125525  0.45878727     0.99600
O1919       O  0.60496413  0.08982793  0.44676800    -0.61500
O1920       O  0.59014917  0.16464944  0.51791718    -0.56300
O1921       O  0.54883558  0.08941972  0.46303586    -0.93000
O1922       O  0.55026758  0.12357743  0.48702751    -0.91500
O1923       O  0.67251251  0.18002734  0.50595101    -0.91800
O1924       O  0.69150974  0.14981244  0.47925156    -0.90600
C1925       C  0.54582801  0.11663498  0.47093781     1.18500
H1926       H  0.62413651  0.12197268  0.53238725     0.34400
H1927       H  0.64533982  0.06055586  0.47439442     0.45300
H1928       H  0.50909398  0.03694893  0.48613622     0.38800
H1929       H  0.54460543  0.44734361  0.51952615     0.35300
H1930       H  0.73223312  0.13537028  0.50584507     0.27000
H1931       H  0.58870340  0.40923036  0.48665303     0.33000
H1932       H  0.98908856  0.39809189  0.48497399     0.38900
H1933       H  0.65069236  0.17994097  0.50175456     0.33400
H1934       H  0.57009166  0.17006635  0.51816975     0.32200
H1935       H  0.00900549  0.13209308  0.51241084     0.33900
H1936       H  0.94022524  0.47790101  0.49422490     0.32900
H1937       H  0.67404713  0.15354254  0.47240269     0.36900
H1938       H  0.60672002  0.11605425  0.44886087     0.29600
H1939       H  0.56979426  0.48799954  0.56689112     0.33800
H1940       H  0.98380169  0.42255449  0.53050828     0.36700
H1941       H  0.59874989  0.16794345  0.52986916     0.29300
H1942       H  0.63043485  0.09663450  0.44822963     0.42200
H1943       H  0.67986773  0.01854099  0.48344679     0.32200
H1944       H  0.71098135  0.08842576  0.50264452     0.39900
H1945       H  0.95143674  0.49120674  0.51325861     0.31700
H1946       H  0.55307607  0.40051373  0.49543851     0.31800
H1947       H  0.54158132  0.45521346  0.55379552     0.32000
C1948       C  0.88949224  0.48251697  0.24403595     0.81200
N1949       N  0.92036059  0.48131162  0.24339330    -0.77100
C1950       C  0.94885792  0.50463302  0.25413945     0.83700
N1951       N  0.95125777  0.03740083  0.26656453    -0.77000
C1952       C  0.92650155  0.04880389  0.26635247     0.83800
N1953       N  0.88729345  0.50778853  0.25541497    -0.78700
C1954       C  0.75900578  0.16661591  0.25762170     0.81200
N1955       N  0.76064168  0.19706262  0.24857681    -0.77100
C1956       C  0.72995626  0.19235013  0.24106949     0.83700
N1957       N  0.69772719  0.15713923  0.24266249    -0.77000
C1958       C  0.69610013  0.12648579  0.25152816     0.83800
N1959       N  0.72669261  0.13150462  0.25900035    -0.78700
C1960       C  0.54730332  0.31662830  0.26738026     0.81200
N1961       N  0.56826268  0.31084884  0.25639575    -0.77100
C1962       C  0.58518626  0.33752294  0.24388079     0.83700
N1963       N  0.58042308  0.36932143  0.24227475    -0.77000
C1964       C  0.55923108  0.37498741  0.25299463     0.83800
N1965       N  0.54288781  0.34876152  0.26567959    -0.78700
C1966       C  0.51215902  0.50110975  0.26573835     0.04100
C1967       C  0.50943375  0.46325938  0.26561397    -0.12000
C1968       C  0.53802627  0.45940231  0.25972658     0.01600
C1969       C  0.56938526  0.49392374  0.25406474    -0.10500
C1970       C  0.59529926  0.04128621  0.24920084     0.04100
C1971       C  0.56257110  0.04074028  0.24855425    -0.10000
H1972       H  0.48530743  0.43693794  0.27020783     0.09700
H1973       H  0.59169701  0.49148046  0.24957939     0.07300
H1974       H  0.56299064  0.06838452  0.24594984     0.07100
Zr1975     Zr  0.72123856  0.34088440  0.20306404     2.17500
O1976       O  0.69943462  0.32293015  0.23183163    -0.50300
O1977       O  0.76807318  0.39777567  0.22066730    -0.73500
O1978       O  0.73708248  0.29492227  0.21603802    -0.80300
O1979       O  0.64983051  0.36885458  0.19223666    -0.82100
O1980       O  0.77663983  0.28959692  0.19916757    -0.77700
O1981       O  0.66795670  0.34153626  0.21259622    -0.89300
O1982       O  0.81353877  0.43924938  0.20349606    -0.75300
O1983       O  0.77869027  0.36737706  0.19038629    -0.84800
O1984       O  0.73224629  0.39940490  0.18831616    -0.84500
O1985       O  0.71358819  0.28666858  0.18443610    -0.71200
O1986       O  0.67209291  0.31757055  0.18245310    -0.83400
Zr1987     Zr  0.73635513  0.35085568  0.13592275     2.26400
Zr1988     Zr  0.77180404  0.31461380  0.17181734     2.06300
Zr1989     Zr  0.68426790  0.37626782  0.16733106     2.10000
Zr1990     Zr  0.78908372  0.42492778  0.17511683     1.78800
O1991       O  0.62120144  0.34825204  0.15816798    -0.92200
O1992       O  0.85408215  0.45260627  0.17270693    -0.40000
O1993       O  0.74172755  0.40355985  0.15424780    -0.76600
O1994       O  0.78536097  0.37365688  0.15647103    -0.95300
O1995       O  0.72429241  0.29216552  0.15069332    -0.88600
O1996       O  0.67827734  0.32467036  0.14817050    -0.91400
C1997       C  0.80046157  0.42721481  0.21810168     1.02300
C1998       C  0.64772655  0.35444406  0.20696364     1.15300
C1999       C  0.75870584  0.28231677  0.21275895     1.06000
O2000       O  0.83690731  0.35089171  0.17803713    -0.93600
O2001       O  0.79667000  0.30825350  0.14570145    -0.89300
O2002       O  0.78229165  0.33835004  0.12502498    -0.82500
C2003       C  0.79866055  0.32080655  0.13062838     1.12700
O2004       O  0.62790753  0.21472353  0.18280832    -0.95600
Zr2005     Zr  0.66689806  0.26648485  0.16308039     1.88900
O2006       O  0.69129471  0.29738206  0.11717257    -0.72200
O2007       O  0.76693579  0.24941039  0.16773533    -0.51500
O2008       O  0.66913395  0.20515633  0.15948144    -0.96200
O2009       O  0.60343926  0.24757274  0.16028030    -0.53400
O2010       O  0.65117276  0.24665670  0.13361175    -0.72700
C2011       C  0.66286520  0.26262495  0.11923990     0.99600
O2012       O  0.76645442  0.37815992  0.10929791    -0.61500
O2013       O  0.69487679  0.44281442  0.17493663    -0.56300
O2014       O  0.72360123  0.40046544  0.12427979    -0.93000
O2015       O  0.68458241  0.40754651  0.14087644    -0.91500
O2016       O  0.78639811  0.48419374  0.18326500    -0.91800
O2017       O  0.81940200  0.47733823  0.15433300    -0.90600
C2018       C  0.70346209  0.41506030  0.12758427     1.18500
H2019       H  0.73241574  0.41904683  0.19604469     0.34400
H2020       H  0.80842241  0.38469977  0.15103250     0.45300
H2021       H  0.65944386  0.31858000  0.13975353     0.38800
H2022       H  0.70699768  0.26204822  0.19019231     0.35300
H2023       H  0.86579307  0.47630089  0.18064632     0.27000
H2024       H  0.78934922  0.25280518  0.17308442     0.33000
H2025       H  0.68586320  0.21065810  0.15008001     0.38900
H2026       H  0.81165833  0.50486122  0.18678361     0.33400
H2027       H  0.71829056  0.46203787  0.16978907     0.32200
H2028       H  0.61839926  0.37197640  0.15726648     0.33900
H2029       H  0.59839029  0.24717718  0.14798118     0.32900
H2030       H  0.80627110  0.46465871  0.14346146     0.36900
H2031       H  0.74719738  0.37443737  0.10111900     0.29600
H2032       H  0.72107383  0.33001809  0.23905760     0.33800
H2033       H  0.61034089  0.19104264  0.17566266     0.36700
H2034       H  0.67648886  0.44518003  0.16821381     0.29300
H2035       H  0.78193319  0.40776184  0.11134021     0.42200
H2036       H  0.84211883  0.32959942  0.18098194     0.32200
H2037       H  0.85844904  0.43246685  0.17803867     0.39900
H2038       H  0.60307563  0.27128316  0.16484685     0.31700
H2039       H  0.74712808  0.23069609  0.17511567     0.31800
H2040       H  0.68440399  0.29301501  0.23177198     0.32000
Zr2041     Zr  0.90699650  0.20606472  0.30402866     2.17500
O2042       O  0.90472533  0.23871550  0.27820625    -0.50300
O2043       O  0.90848540  0.15450694  0.28691972    -0.73500
O2044       O  0.96715836  0.25368616  0.29307295    -0.80300
O2045       O  0.80444301  0.13879043  0.30615757    -0.82100
O2046       O  0.50480354  0.27726997  0.32383149    -0.77700
O2047       O  0.84932630  0.18264657  0.28911456    -0.89300
O2048       O  0.91890659  0.11632520  0.30503401    -0.75300
O2049       O  0.94802497  0.19521958  0.32046829    -0.84800
O2050       O  0.87088575  0.14265227  0.31724004    -0.84500
O2051       O  0.93529153  0.26220794  0.32396271    -0.71200
O2052       O  0.86439295  0.21258618  0.32089395    -0.83400
Zr2053     Zr  0.89853916  0.19249975  0.37113017     2.26400
Zr2054     Zr  0.97544258  0.25023816  0.34083284     2.06300
Zr2055     Zr  0.82960131  0.14956515  0.33457885     2.10000
Zr2056     Zr  0.91151712  0.13201125  0.33371606     1.78800
O2057       O  0.78248617  0.16639045  0.33482115    -0.92200
O2058       O  0.96644226  0.12875699  0.33587222    -0.40000
O2059       O  0.86899905  0.13632921  0.35133522    -0.76600
O2060       O  0.94114965  0.18622033  0.35411665    -0.95300
O2061       O  0.93367623  0.25642489  0.35822012    -0.88600
O2062       O  0.85746606  0.20374766  0.35502630    -0.91400
C2063       C  0.91441631  0.12610617  0.29016022     1.02300
C2064       C  0.81600688  0.15654656  0.29210829     1.15300
C2065       C  0.49778182  0.27075562  0.30784244     1.06000
O2066       O  0.02734656  0.24167227  0.33865824    -0.93600
O2067       O  0.00125365  0.25869014  0.36928590    -0.89300
O2068       O  0.95574023  0.21834944  0.38680327    -0.82500
C2069       C  0.98931629  0.24300356  0.38371072     1.12700
O2070       O  0.89120006  0.30957274  0.31959993    -0.95600
Zr2071     Zr  0.89270367  0.26659162  0.34152040     1.88900
O2072       O  0.89089164  0.24046315  0.38774442    -0.72200
O2073       O  0.01366371  0.32282236  0.34639452    -0.51500
O2074       O  0.94191372  0.33614236  0.34698357    -0.96200
O2075       O  0.83641189  0.26706364  0.33897746    -0.53400
O2076       O  0.88261747  0.28096412  0.37003836    -0.72700
C2077       C  0.88472272  0.26880280  0.38478737     0.99600
O2078       O  0.90372355  0.16674465  0.39840693    -0.61500
O2079       O  0.78716970  0.07702691  0.33084770    -0.56300
O2080       O  0.84018718  0.13759420  0.38087310    -0.93000
O2081       O  0.79712284  0.12123627  0.36015563    -0.91500
O2082       O  0.86365197  0.06218433  0.32754025    -0.91800
O2083       O  0.90930250  0.08726386  0.35569272    -0.90600
C2084       C  0.80712091  0.11859605  0.37520107     1.18500
H2085       H  0.85747043  0.12086005  0.30901282     0.34400
H2086       H  0.95685997  0.18082778  0.36097514     0.45300
H2087       H  0.83928057  0.20356173  0.36203609     0.38800
H2088       H  0.94866954  0.28736701  0.31810088     0.35300
H2089       H  0.95845372  0.10040510  0.33274589     0.27000
H2090       H  0.53210066  0.32588093  0.35201338     0.33000
H2091       H  0.93002203  0.35014677  0.35161562     0.38900
H2092       H  0.84508228  0.05619401  0.33608376     0.33400
H2093       H  0.76310945  0.07414282  0.32910660     0.32200
H2094       H  0.75991343  0.14105848  0.33122389     0.33900
H2095       H  0.84047919  0.29012664  0.34628365     0.32900
H2096       H  0.89220413  0.08681462  0.36402266     0.36900
H2097       H  0.88649240  0.16879104  0.40587242     0.29600
H2098       H  0.91745928  0.23212270  0.26961211     0.33800
H2099       H  0.89113433  0.33215138  0.32561056     0.36700
H2100       H  0.79262833  0.06973253  0.31969784     0.29300
H2101       H  0.89346525  0.13739184  0.39649477     0.42200
H2102       H  0.02042332  0.21683425  0.34493546     0.32200
H2103       H  0.98121053  0.14458378  0.32627485     0.39900
H2104       H  0.81825796  0.24290102  0.34499343     0.31700
H2105       H  0.49886223  0.32940134  0.34627973     0.31800
H2106       H  0.92048740  0.26818730  0.28050410     0.32000
C2107       C  0.55572270  0.41050633  0.25077408    -0.15400
C2108       C  0.53620507  0.42004356  0.26081615    -0.30600
H2109       H  0.57065314  0.42991373  0.24045351     0.13600
H2110       H  0.51936550  0.39914008  0.27039746     0.14200
C2111       C  0.52567169  0.29840886  0.29621333    -0.15400
C2112       C  0.52717895  0.28676100  0.28031422    -0.30600
H2113       H  0.54333518  0.32982686  0.30030328     0.13600
H2114       H  0.51149522  0.25499937  0.27643912     0.14200
C2115       C  0.60974637  0.33314383  0.23245050    -0.15400
C2116       C  0.62052198  0.35401616  0.21809217    -0.30600
H2117       H  0.61950638  0.31332387  0.23597021     0.13600
H2118       H  0.60912291  0.37213091  0.21429439     0.14200
C2119       C  0.66172711  0.08789980  0.25353828    -0.15400
C2120       C  0.62981888  0.08012745  0.24679099    -0.30600
H2121       H  0.66295734  0.06563492  0.26124074     0.13600
H2122       H  0.62863644  0.10356988  0.23992430     0.14200
C2123       C  0.73073437  0.22498846  0.23140151    -0.15400
C2124       C  0.76111261  0.25503167  0.22475006    -0.30600
H2125       H  0.70481553  0.22231410  0.22844624     0.13600
H2126       H  0.78664950  0.25596142  0.22625250     0.14200
C2127       C  0.78801681  0.14659203  0.27896673    -0.15400
C2128       C  0.79120923  0.17313210  0.26733634    -0.30600
H2129       H  0.76204832  0.11880846  0.28049563     0.13600
H2130       H  0.81657530  0.20188789  0.26636195     0.14200
C2131       C  0.44701511  0.47862147  0.26739736    -0.15400
C2132       C  0.48207216  0.50606533  0.27119806    -0.30600
H2133       H  0.98006389  0.47728464  0.24613700     0.13600
H2134       H  0.47099653  0.97650818  0.24459282     0.14200
C2135       C  0.86042930  0.45858035  0.23134400    -0.15400
C2136       C  0.82558097  0.44824263  0.23266951    -0.30600
H2137       H  0.86834449  0.44859616  0.22016271     0.13600
H2138       H  0.81591144  0.45471648  0.24418505     0.14200
C2139       C  0.93260076  0.08212070  0.27761520    -0.15400
C2140       C  0.91433630  0.10125110  0.27598284    -0.30600
H2141       H  0.95143668  0.08956496  0.28832484     0.13600
H2142       H  0.89716869  0.09615829  0.26483915     0.14200
C2143       C  0.72899968  0.44935771  0.41463361    -0.15400
C2144       C  0.69825258  0.44785763  0.40975048    -0.30600
H2145       H  0.75493816  0.47774823  0.41457462     0.13600
H2146       H  0.67242671  0.41936706  0.40963304     0.14200
C2147       C  0.77878936  0.09002032  0.38642853    -0.15400
C2148       C  0.74428810  0.08128410  0.38508176    -0.30600
H2149       H  0.78598998  0.07420512  0.39546354     0.13600
H2150       H  0.73714456  0.09881230  0.37704562     0.14200
C2151       C  0.62673737  0.99262931  0.43604231    -0.15400
C2152       C  0.64196012  0.02028667  0.42387007    -0.30600
H2153       H  0.61830665  0.46320670  0.43468560     0.13600
H2154       H  0.64175695  0.04820866  0.42468571     0.14200
C2155       C  0.62648798  0.31135342  0.43722625    -0.15400
C2156       C  0.65831445  0.31402047  0.44071570    -0.30600
H2157       H  0.62550679  0.33391861  0.42963755     0.13600
H2158       H  0.65847449  0.28925064  0.44694231     0.14200
C2159       C  0.01664441  0.25418359  0.39746938    -0.15400
C2160       C  0.00981913  0.23306943  0.41173134    -0.30600
H2161       H  0.04382150  0.27960950  0.39538387     0.13600
H2162       H  0.98320832  0.20639037  0.41350662     0.14200
C2163       C  0.55415988  0.18231847  0.46481567    -0.15400
C2164       C  0.53854219  0.14302859  0.46055425    -0.30600
H2165       H  0.57109429  0.19410276  0.47630208     0.13600
H2166       H  0.52511214  0.13189731  0.44820070     0.14200
C2167       C  0.81690508  0.38886289  0.42377629    -0.15400
C2168       C  0.78190874  0.36127763  0.42032835    -0.30600
H2169       H  0.82463613  0.41848119  0.42899877     0.13600
H2170       H  0.77398960  0.33042677  0.41684729     0.14200
C2171       C  0.86310695  0.30932567  0.39821533    -0.15400
C2172       C  0.88117641  0.28988477  0.39947373    -0.30600
H2173       H  0.84751760  0.30620057  0.38671166     0.13600
H2174       H  0.89482860  0.29077380  0.41132228     0.14200
C2175       C  0.92947009  0.40358185  0.44556491    -0.15400
C2176       C  0.95276330  0.44348593  0.44505234    -0.30600
H2177       H  0.93270493  0.38541160  0.45498673     0.13600
H2178       H  0.95075610  0.46070936  0.43478094     0.14200
C2179       C  0.92187254  0.10285707  0.58633619    -0.15400
C2180       C  0.94285630  0.13306681  0.57588223    -0.30600
H2181       H  0.90005350  0.10275177  0.59303771     0.13600
H2182       H  0.96548515  0.13332534  0.56989820     0.14200
C2183       C  0.89215188  0.48036942  0.61297669    -0.15400
C2184       C  0.85623162  0.46521318  0.61219178    -0.30600
H2185       H  0.91190563  0.97588466  0.62683687     0.13600
H2186       H  0.84470574  0.47392088  0.60193237     0.14200
C2187       C  0.50604867  0.04223454  0.57801691    -0.15400
C2188       C  0.52589153  0.07402366  0.56809783    -0.30600
H2189       H  0.99952511  0.01884042  0.57461678     0.13600
H2190       H  0.52093021  0.09884234  0.56805620     0.14200
C2191       C  0.49053394  0.24355385  0.55117773    -0.15400
C2192       C  0.52017961  0.25070199  0.56018397    -0.30600
H2193       H  0.49051115  0.26810290  0.54468047     0.13600
H2194       H  0.51917062  0.22731643  0.56801402     0.14200
C2195       C  0.63169652  0.34661858  0.59189750    -0.15400
C2196       C  0.62231739  0.32364642  0.60574986    -0.30600
H2197       H  0.65885438  0.37307187  0.59117049     0.13600
H2198       H  0.59453606  0.29868389  0.60696132     0.14200
C2199       C  0.59469371  0.38842792  0.54024818    -0.15400
C2200       C  0.61356699  0.42810154  0.54421915    -0.30600
H2201       H  0.57837159  0.37797527  0.52854863     0.13600
H2202       H  0.62709532  0.43849774  0.55658792     0.14200
C2203       C  0.86769610  0.23073193  0.57830692    -0.15400
C2204       C  0.87189256  0.20178620  0.57122053    -0.30600
H2205       H  0.89024088  0.25631040  0.58512028     0.13600
H2206       H  0.84845394  0.17451909  0.56580294     0.14200
C2207       C  0.78269363  0.26197694  0.60383030    -0.15400
C2208       C  0.75772083  0.27254606  0.60204011    -0.30600
H2209       H  0.79838606  0.26899928  0.61565328     0.13600
H2210       H  0.74415347  0.26909195  0.58985533     0.14200
C2211       C  0.71034125  0.14560737  0.55814663    -0.15400
C2212       C  0.74504350  0.17053465  0.55402198    -0.30600
H2213       H  0.70231671  0.14409606  0.57121314     0.13600
H2214       H  0.75378405  0.16972394  0.54127365     0.14200
C2215       C  0.53695801  0.11294674  0.73806800    -0.15400
C2216       C  0.56003302  0.10613276  0.72953397    -0.30600
H2217       H  0.51709182  0.08980342  0.74613780     0.13600
H2218       H  0.58157503  0.13007786  0.72236889     0.14200
C2219       C  0.58310113  0.24803249  0.71536594    -0.15400
C2220       C  0.61761998  0.25699530  0.71461578    -0.30600
H2221       H  0.57389255  0.26494297  0.70818922     0.13600
H2222       H  0.62703853  0.24217207  0.72306803     0.14200
C2223       C  0.48866949  0.19350219  0.75837057    -0.15400
C2224       C  0.00500847  0.22627732  0.76474952    -0.30600
H2225       H  0.96399859  0.17885640  0.74959782     0.13600
H2226       H  0.03416855  0.24503653  0.76725558     0.14200
C2227       C  0.65058560  0.05041243  0.73862415    -0.15400
C2228       C  0.61895052  0.02341405  0.73083474    -0.30600
H2229       H  0.65342109  0.07669884  0.74527384     0.13600
H2230       H  0.61554684  0.99575180  0.72529372     0.14200
C2231       C  0.76982242  0.08497086  0.76220006    -0.15400
C2232       C  0.76749424  0.09976233  0.77719963    -0.30600
H2233       H  0.79521961  0.08760727  0.75865346     0.13600
H2234       H  0.74140450  0.09385002  0.78152513     0.14200
C2235       C  0.72561413  0.45799525  0.72755488    -0.15400
C2236       C  0.70578280  0.47544498  0.72589003    -0.30600
H2237       H  0.73627528  0.45659380  0.73992876     0.13600
H2238       H  0.69239620  0.47332064  0.71378372     0.14200
C2239       C  0.97354839  0.45928853  0.75533829    -0.15400
C2240       C  0.00336072  0.46340242  0.76304847    -0.30600
H2241       H  0.97572889  0.48264503  0.74710542     0.13600
H2242       H  0.46241863  0.95601469  0.72786645     0.14200
C2243       C  0.88363605  0.29172588  0.77675579    -0.15400
C2244       C  0.89375516  0.32984292  0.78123585    -0.30600
H2245       H  0.87575516  0.28144279  0.76364598     0.13600
H2246       H  0.90481454  0.34137470  0.79393039     0.14200
C2247       C  0.85541270  0.40113839  0.72084006    -0.15400
C2248       C  0.84829533  0.37602984  0.73383862    -0.30600
H2249       H  0.88312332  0.42555706  0.71889281     0.13600
H2250       H  0.82102874  0.35022014  0.73529262     0.14200
C2251       C  0.52860228  0.24288208  0.88529893    -0.15400
C2252       C  0.52604656  0.26057208  0.89947540    -0.30600
H2253       H  0.55513623  0.25018033  0.88104046     0.13600
H2254       H  0.49979880  0.25530226  0.90320679     0.14200
C2255       C  0.58271905  0.36598565  0.94410059    -0.15400
C2256       C  0.56014702  0.37996354  0.94241535    -0.30600
H2257       H  0.60135186  0.37546718  0.95501215     0.13600
H2258       H  0.54405219  0.37400317  0.93080080     0.14200
C2259       C  0.65681523  0.32472238  0.91422860    -0.15400
C2260       C  0.66136228  0.29939860  0.90427466    -0.30600
H2261       H  0.67987834  0.34834298  0.92158078     0.13600
H2262       H  0.63799104  0.27391079  0.89784299     0.14200
C2263       C  0.75511281  0.22142941  0.90682852    -0.15400
C2264       C  0.72820371  0.22792060  0.91053208    -0.30600
H2265       H  0.77915372  0.24425044  0.90061297     0.13600
H2266       H  0.70367487  0.20374539  0.91602995     0.14200
C2267       C  0.80838022  0.13884900  0.90044052    -0.15400
C2268       C  0.79973074  0.11273025  0.88735394    -0.30600
H2269       H  0.83601006  0.16457019  0.90184831     0.13600
H2270       H  0.77130224  0.08984346  0.88484372     0.14200
C2271       C  0.69132884  0.08471007  0.92911787    -0.15400
C2272       C  0.69600770  0.06408445  0.94137715    -0.30600
H2273       H  0.66582798  0.08403470  0.92807080     0.13600
H2274       H  0.72271450  0.06823729  0.94364627     0.14200
C2275       C  0.82860673  0.38633324  0.90838452    -0.15400
C2276       C  0.79738118  0.37834703  0.90060805    -0.30600
H2277       H  0.82871282  0.36428006  0.91667855     0.13600
H2278       H  0.79682122  0.40182919  0.89347716     0.14200
C2279       C  0.90043539  0.01635207  0.87387020    -0.15400
C2280       C  0.91936237  0.05668243  0.87649653    -0.30600
H2281       H  0.88306470  0.00359685  0.86256010     0.13600
H2282       H  0.93437430  0.06954861  0.88839876     0.14200
C2283       C  0.95245460  0.47799836  0.93057385    -0.15400
C2284       C  0.94544253  0.45509654  0.94434405    -0.30600
H2285       H  0.97771507  0.00777759  0.92210029     0.13600
H2286       H  0.91746983  0.43214216  0.94682389     0.14200
C2287       C  0.86239284  0.10696952  0.08747981    -0.15400
C2288       C  0.83091958  0.10089068  0.08091309    -0.30600
H2289       H  0.86359323  0.08198213  0.09284245     0.13600
H2290       H  0.83049143  0.12514616  0.07437179     0.14200
C2291       C  0.70355082  0.44416530  0.11572414    -0.15400
C2292       C  0.73454594  0.47106191  0.10841500    -0.30600
H2293       H  0.67939425  0.44610205  0.11423340     0.13600
H2294       H  0.75917673  0.47073570  0.11127055     0.14200
C2295       C  0.70182669  0.02135983  0.06589861    -0.15400
C2296       C  0.70743315  0.04393668  0.05216116    -0.30600
H2297       H  0.67457344  0.99719408  0.06880050     0.13600
H2298       H  0.71798954  0.56616224  0.04989452     0.14200
C2299       C  0.89873995  0.26227156  0.09468783    -0.15400
C2300       C  0.92527187  0.25857982  0.08784707    -0.30600
H2301       H  0.87758960  0.23795342  0.10182783     0.13600
H2302       H  0.94716063  0.28422517  0.08153641     0.14200
C2303       C  0.83956639  0.33878052  0.10649903    -0.15400
C2304       C  0.82201880  0.31450689  0.11935930    -0.30600
H2305       H  0.83581969  0.36374874  0.10357562     0.13600
H2306       H  0.82764754  0.29121929  0.12288709     0.14200
C2307       C  0.94476198  0.39371820  0.06958772    -0.15400
C2308       C  0.93629101  0.39712089  0.05351824    -0.30600
H2309       H  0.97301003  0.40800110  0.07381431     0.13600
H2310       H  0.90802895  0.38057714  0.04911748     0.14200
C2311       C  0.02902955  0.22311702  0.08295964    -0.15400
C2312       C  0.99580629  0.19043757  0.07972104    -0.30600
H2313       H  0.03221519  0.24943423  0.08968993     0.13600
H2314       H  0.99353053  0.16342762  0.07406721     0.14200
C2315       C  0.64076201  0.24024334  0.10413645    -0.15400
C2316       C  0.60469983  0.21646031  0.10539677    -0.30600
H2317       H  0.65314533  0.24639780  0.09181284     0.13600
H2318       H  0.59208179  0.21396113  0.11747370     0.14200
C2319       C  0.58681141  0.11698184  0.05568364    -0.15400
C2320       C  0.56885135  0.13607505  0.05239134    -0.30600
H2321       H  0.59688992  0.11730840  0.06843171     0.13600
H2322       H  0.55599527  0.13256992  0.03999797     0.14200
C2323       C  0.59220851  0.72174963  0.08875514     0.81200
N2324       N  0.59636808  0.69918171  0.07674296    -0.77100
C2325       C  0.57156903  0.68182240  0.06376580     0.83700
N2326       N  0.54288997  0.68705192  0.06284476    -0.77000
C2327       C  0.03516730  0.66905575  0.08427861     0.83800
N2328       N  0.56304411  0.72623212  0.08795560    -0.78700
C2329       C  0.92563213  0.85924452  0.07378278     0.81200
N2330       N  0.93000172  0.82740685  0.07652448    -0.77100
C2331       C  0.90970446  0.79951700  0.08808811     0.83700
N2332       N  0.88577963  0.80412028  0.09713472    -0.77000
C2333       C  0.88129332  0.83584990  0.09472287     0.83800
N2334       N  0.90107426  0.86344592  0.08284966    -0.78700
C2335       C  0.71383977  0.53087518  0.07882082     0.81200
N2336       N  0.72877422  0.99681620  0.08678843    -0.77100
C2337       C  0.75837775  0.00040025  0.09506547     0.83700
N2338       N  0.77212602  0.53497890  0.09465204    -0.77000
C2339       C  0.77697110  0.56479682  0.08421363     0.83800
N2340       N  0.74786588  0.56252216  0.07638117    -0.78700
C2341       C  0.94460508  0.66393271  0.07917518     0.04100
C2342       C  0.90946625  0.63099549  0.08136810    -0.12000
C2343       C  0.88027183  0.63672762  0.08311757     0.01600
C2344       C  0.88653361  0.67609846  0.08274774    -0.10500
C2345       C  0.92169076  0.70947715  0.08051428     0.04100
C2346       C  0.95060339  0.70320062  0.07848374    -0.10000
H2347       H  0.90486251  0.60069571  0.08186354     0.09700
H2348       H  0.86416351  0.68093504  0.08429035     0.07300
H2349       H  0.97758473  0.72881900  0.07646840     0.07100
C2350       C  0.89967995  0.48895116  0.89518166     0.81200
N2351       N  0.86902813  0.94947818  0.88617775    -0.77100
C2352       C  0.86632950  0.92229252  0.89763270     0.83700
N2353       N  0.89315151  0.93332845  0.90938147    -0.77000
C2354       C  0.92264787  0.97126076  0.91006828     0.83800
N2355       N  0.92719631  0.49757914  0.90655232    -0.78700
C2356       C  0.71586546  0.61249287  0.92054816     0.81200
N2357       N  0.72018115  0.64922996  0.91781990    -0.77100
C2358       C  0.75114874  0.67920150  0.91112930     0.83700
N2359       N  0.77767478  0.67207309  0.90699871    -0.77000
C2360       C  0.77337954  0.63524182  0.90932990     0.83800
N2361       N  0.74241841  0.60522640  0.91614279    -0.78700
C2362       C  0.70695450  0.80925903  0.91157121     0.04100
C2363       C  0.70520515  0.77232344  0.91352213    -0.12000
C2364       C  0.73411555  0.76775193  0.90876721     0.01600
C2365       C  0.76504616  0.80095504  0.90190053    -0.10500
C2366       C  0.76723264  0.83827305  0.90019387     0.04100
C2367       C  0.73798151  0.84199096  0.90492853    -0.10000
H2368       H  0.68151297  0.74722429  0.91905635     0.09700
H2369       H  0.78748418  0.79833840  0.89781098     0.07300
H2370       H  0.73957407  0.87072481  0.90366830     0.07100
C2371       C  0.55486905  0.78059833  0.90864418     0.81200
N2372       N  0.55819046  0.80844964  0.92025344    -0.77100
C2373       C  0.58877883  0.82892747  0.93020236     0.83700
N2374       N  0.61597067  0.82125766  0.92855398    -0.77000
C2375       C  0.61259297  0.79324111  0.91691123     0.83800
N2376       N  0.58205023  0.77299954  0.90704818    -0.78700
Zr2377     Zr  0.58776063  0.00323647  0.03231581     2.17500
O2378       O  0.58403195  0.97998461  0.06123234    -0.50300
O2379       O  0.58405228  0.57173243  0.04602792    -0.73500
O2380       O  0.64566616  0.01961590  0.04513058    -0.80300
O2381       O  0.95082106  0.93061541  0.02154674    -0.82100
O2382       O  0.67188917  0.54739655  0.02578411    -0.77700
O2383       O  0.99641534  0.95363459  0.04146614    -0.89300
O2384       O  0.58223056  0.61160168  0.02569341    -0.75300
O2385       O  0.61386102  0.56411004  0.01520285    -0.84800
O2386       O  0.55023763  0.02093983  0.01695034    -0.84500
O2387       O  0.61747876  0.97829501  0.01478089    -0.71200
O2388       O  0.54554867  0.94379903  0.01590586    -0.83400
Zr2389     Zr  0.57717843  0.99358125  0.96482559     2.26400
Zr2390     Zr  0.64191509  0.53685023  0.99832116     2.06300
Zr2391     Zr  0.98041753  0.96042816  0.99495030     2.10000
Zr2392     Zr  0.57820882  0.58181228  0.99819578     1.78800
O2393       O  0.93451726  0.88951902  0.98932151    -0.92200
O2394       O  0.63234610  0.64935766  0.99846423    -0.40000
O2395       O  0.53632747  0.52425703  0.98110179    -0.76600
O2396       O  0.60846326  0.55746870  0.98111855    -0.95300
O2397       O  0.61464571  0.97606401  0.98051284    -0.88600
O2398       O  0.53772569  0.93835995  0.98194379    -0.91400
C2399       C  0.58475618  0.60354609  0.04114425     1.02300
C2400       C  0.96299219  0.93126967  0.03661436     1.15300
C2401       C  0.66178982  0.53945096  0.04112739     1.06000
O2402       O  0.68825507  0.60857035  0.99894334    -0.93600
O2403       O  0.66928249  0.54764137  0.97089558    -0.89300
O2404       O  0.62492689  0.53176437  0.95087446    -0.82500
C2405       C  0.65821892  0.54585584  0.95556107     1.12700
O2406       O  0.56307196  0.87563942  0.02092672    -0.95600
Zr2407     Zr  0.57521684  0.92104663  0.99753565     1.88900
O2408       O  0.56991713  0.93384511  0.95038228    -0.72200
O2409       O  0.70163463  0.01588511  0.99519582    -0.51500
O2410       O  0.62413282  0.90756896  0.00143936    -0.96200
O2411       O  0.52048539  0.85454477  0.99286431    -0.53400
O2412       O  0.58150063  0.89892456  0.96980484    -0.72700
C2413       C  0.57563668  0.90572051  0.95460945     0.99600
O2414       O  0.57521401  0.52714222  0.93661256    -0.61500
O2415       O  0.93616636  0.98093159  0.99854969    -0.56300
O2416       O  0.51771250  0.97447842  0.95229926    -0.93000
O2417       O  0.95548203  0.95587102  0.96644769    -0.91500
O2418       O  0.52932710  0.59582788  0.99659002    -0.91800
O2419       O  0.58327105  0.62033499  0.97318713    -0.90600
C2420       C  0.48527926  0.95836597  0.95786238     1.18500
H2421       H  0.53661609  0.02772504  0.02442007     0.34400
H2422       H  0.62464727  0.57905150  0.97386743     0.45300
H2423       H  0.51977930  0.91584392  0.97496360     0.38800
H2424       H  0.63152251  0.97023294  0.02143735     0.35300
H2425       H  0.62338846  0.66781971  0.00085853     0.27000
H2426       H  0.70761859  0.53570864  0.00177802     0.33000
H2427       H  0.64586301  0.93174765  0.99711095     0.38900
H2428       H  0.54025181  0.62372561  0.00129684     0.33400
H2429       H  0.94625437  0.00653827  0.99241380     0.32200
H2430       H  0.91156882  0.88653515  0.99323943     0.33900
H2431       H  0.51382928  0.85264827  0.98068151     0.32900
H2432       H  0.57333431  0.59999372  0.96375058     0.36900
H2433       H  0.56010594  0.50406852  0.92866995     0.29600
H2434       H  0.60139944  0.00397147  0.06828043     0.33800
H2435       H  0.56452842  0.85273982  0.01616363     0.36700
H2436       H  0.91469124  0.96117323  0.99156526     0.29300
H2437       H  0.56357897  0.54347087  0.93665018     0.42200
H2438       H  0.71002510  0.60989800  0.99430320     0.32200
H2439       H  0.64621743  0.65095589  0.00887888     0.39900
H2440       H  0.50125016  0.85627796  0.99876318     0.31700
H2441       H  0.70011066  0.00130239  0.00564142     0.31800
H2442       H  0.59419153  0.96216941  0.06107587     0.32000
C2443       C  0.89703367  0.84729386  0.76938099     0.81200
N2444       N  0.86990331  0.84060556  0.75813011    -0.77100
C2445       C  0.87518219  0.87010645  0.74723532     0.83700
N2446       N  0.90750470  0.90556764  0.74764055    -0.77000
C2447       C  0.93450310  0.91231890  0.75867802     0.83800
N2448       N  0.92910800  0.88328801  0.76970467    -0.78700
C2449       C  0.71714283  0.53544650  0.76509424     0.81200
N2450       N  0.68503174  0.53412498  0.76495663    -0.77100
C2451       C  0.65984137  0.51349486  0.75236499     0.83700
N2452       N  0.66677858  0.49411672  0.73997857    -0.77000
C2453       C  0.69859848  0.49499601  0.74006921     0.83800
N2454       N  0.72392436  0.51583949  0.75260352    -0.78700
C2455       C  0.56037791  0.72333075  0.72726236     0.81200
N2456       N  0.56000024  0.68875366  0.73064747    -0.77100
C2457       C  0.53496117  0.66123291  0.74105538     0.83700
N2458       N  0.51052500  0.66844456  0.74813375    -0.77000
C2459       C  0.51087138  0.70288765  0.74500212     0.83800
N2460       N  0.53587082  0.73058991  0.73456373    -0.78700
C2461       C  0.58809396  0.54294359  0.75483009     0.04100
C2462       C  0.55415076  0.50714222  0.75575151    -0.12000
C2463       C  0.52208140  0.50668700  0.75181810     0.01600
C2464       C  0.52425999  0.54219643  0.74661340    -0.10500
C2465       C  0.55800067  0.57869657  0.74627314     0.04100
C2466       C  0.58985046  0.57883946  0.75041023    -0.10000
H2467       H  0.55066756  0.96272726  0.73369616     0.09700
H2468       H  0.02003301  0.54080852  0.76027368     0.07300
H2469       H  0.61602068  0.60668113  0.74986604     0.07100
Zr2470     Zr  0.89920938  0.67198719  0.79717575     2.17500
O2471       O  0.90358487  0.65064136  0.76854661    -0.50300
O2472       O  0.89038661  0.72375819  0.78446678    -0.73500
O2473       O  0.84048944  0.62258748  0.78435085    -0.80300
O2474       O  0.00266914  0.73590528  0.80166395    -0.82100
O2475       O  0.79866275  0.59604380  0.80491272    -0.77700
O2476       O  0.95620326  0.69994866  0.78253171    -0.89300
O2477       O  0.88782695  0.76233503  0.80564563    -0.75300
O2478       O  0.85939044  0.67963323  0.81522221    -0.84800
O2479       O  0.93639448  0.73172292  0.81391402    -0.84500
O2480       O  0.87056198  0.61125743  0.81341113    -0.74800
O2481       O  0.94137224  0.66003819  0.81244939    -0.83400
Zr2482     Zr  0.91024746  0.66770726  0.86454139     2.26400
Zr2483     Zr  0.83174222  0.62030233  0.83196290     2.06300
Zr2484     Zr  0.97756204  0.71983161  0.82962488     2.10000
Zr2485     Zr  0.89704946  0.73874173  0.83232168     1.78800
O2486       O  0.03084002  0.71401389  0.82677854    -0.92200
O2487       O  0.84090715  0.73848922  0.83593039    -0.40000
O2488       O  0.93919940  0.72858978  0.84853126    -0.76600
O2489       O  0.86819965  0.68005016  0.84930249    -0.95300
O2490       O  0.87301457  0.60820136  0.84766069    -0.88600
O2491       O  0.94991429  0.66038225  0.84628657    -0.91400
C2492       C  0.88734590  0.75325786  0.78994499     1.02300
C2493       C  0.99008103  0.72292817  0.78658800     1.15300
C2494       C  0.80799904  0.59973077  0.78937500     1.06000
O2495       O  0.78337503  0.63500297  0.83363797    -0.93600
O2496       O  0.80634450  0.60406145  0.85987715    -0.89300
O2497       O  0.85307546  0.63616833  0.87927427    -0.82500
C2498       C  0.81909407  0.61472366  0.87509400     1.12700
O2499       O  0.91388040  0.56444148  0.80437680    -0.95600
Zr2500     Zr  0.91267756  0.60107313  0.82946063     1.88900
O2501       O  0.91811035  0.61577048  0.87747238    -0.72200
O2502       O  0.79125439  0.54733980  0.83354226    -0.51500
O2503       O  0.86348053  0.53046594  0.82893491    -0.96200
O2504       O  0.96961769  0.60209967  0.82786729    -0.53400
O2505       O  0.91576221  0.57365025  0.85650599    -0.72700
C2506       C  0.91789500  0.58415237  0.87217411     0.99600
O2507       O  0.90686272  0.69223958  0.89267196    -0.61500
O2508       O  0.01358470  0.79345963  0.83164103    -0.56300
O2509       O  0.97033320  0.71472268  0.87708395    -0.93000
O2510       O  0.01140468  0.73737821  0.85613365    -0.91500
O2511       O  0.94572920  0.80896795  0.82980550    -0.91800
O2512       O  0.90129728  0.78026766  0.85673123    -0.90600
C2513       C  0.00293120  0.73442389  0.87169285     1.18500
H2514       H  0.94929281  0.75499977  0.80689223     0.34400
H2515       H  0.85313709  0.68389034  0.85709173     0.45300
H2516       H  0.96800696  0.65798825  0.85266753     0.38800
H2517       H  0.85656411  0.58750910  0.80618123     0.35300
H2518       H  0.84710347  0.76618107  0.83313353     0.27000
H2519       H  0.76653363  0.54265561  0.83177535     0.33000
H2520       H  0.85122414  0.52682599  0.83982380     0.38900
H2521       H  0.93330803  0.82385139  0.82720963     0.33400
H2522       H  0.50060327  0.79563873  0.83878312     0.32200
H2523       H  0.53716494  0.72812303  0.82404104     0.33900
H2524       H  0.97988165  0.60788675  0.83959080     0.32900
H2525       H  0.90636677  0.76795227  0.86647975     0.36900
H2526       H  0.92190132  0.68622964  0.90027050     0.29600
H2527       H  0.88804003  0.65645706  0.76122028     0.33800
H2528       H  0.91785303  0.54308625  0.80867142     0.36700
H2529       H  0.00261942  0.80086795  0.84083508     0.29300
H2530       H  0.92029759  0.72209211  0.89207512     0.42200
H2531       H  0.76065711  0.60841775  0.83192878     0.32200
H2532       H  0.82472153  0.72127487  0.82640897     0.39900
H2533       H  0.98594821  0.62694239  0.82168958     0.31700
H2534       H  0.79560633  0.53600408  0.82316931     0.31800
H2535       H  0.89114249  0.62077370  0.76862527     0.32000
C2536       C  0.76007772  0.67475091  0.56890338     0.81200
N2537       N  0.75428186  0.69370031  0.58191375    -0.77100
C2538       C  0.78210945  0.71848365  0.59281591     0.83700
N2539       N  0.81562496  0.72399882  0.59075124    -0.77000
C2540       C  0.82140507  0.70528649  0.57760306     0.83800
N2541       N  0.79358542  0.68103863  0.56667816    -0.78700
C2542       C  0.61403174  0.83990359  0.57785940     0.81200
N2543       N  0.62076174  0.86830811  0.56621676    -0.77100
C2544       C  0.59602083  0.86010409  0.55344197     0.83700
N2545       N  0.56461471  0.82348669  0.55240867    -0.77000
C2546       C  0.55795367  0.79518270  0.56406378     0.83800
N2547       N  0.58268897  0.80350200  0.57665309    -0.78700
C2548       C  0.91548181  0.51188953  0.60113070     0.81200
N2549       N  0.90575535  0.53836803  0.59580291    -0.77100
C2550       C  0.92619215  0.56696374  0.58460340     0.83700
N2551       N  0.46504832  0.56635806  0.58511646    -0.77000
C2552       C  0.96684782  0.54356183  0.58416390     0.83800
N2553       N  0.94608279  0.51433291  0.59524254    -0.78700
C2554       C  0.89677894  0.68991787  0.56219348     0.04100
C2555       C  0.89759327  0.65445096  0.56362939    -0.12000
C2556       C  0.93027502  0.65542730  0.56199794     0.01600
C2557       C  0.96161547  0.69148119  0.55786994    -0.10500
C2558       C  0.96161146  0.72771372  0.55728763     0.04100
C2559       C  0.92885837  0.72669862  0.55917801    -0.10000
H2560       H  0.87291095  0.62634377  0.56637968     0.09700
H2561       H  0.48334524  0.67332420  0.55852258     0.07300
H2562       H  0.92844466  0.75441856  0.55865696     0.07100
Zr2563     Zr  0.73834642  0.85379097  0.69758405     2.17500
O2564       O  0.72865084  0.82585297  0.72587405    -0.50300
O2565       O  0.73802996  0.90876961  0.71311350    -0.73500
O2566       O  0.79391453  0.86731440  0.71245808    -0.80300
O2567       O  0.63564960  0.78658444  0.68751587    -0.82100
O2568       O  0.84054791  0.90077121  0.69452552    -0.77700
O2569       O  0.67989354  0.80066273  0.70734868    -0.89300
O2570       O  0.73446156  0.95006281  0.69405297    -0.75300
O2571       O  0.77955175  0.91415069  0.68344633    -0.84800
O2572       O  0.70159726  0.87094143  0.68104371    -0.84500
O2573       O  0.77424947  0.83589021  0.68078948    -0.71200
O2574       O  0.70207786  0.79749549  0.67848422    -0.83400
Zr2575     Zr  0.74406747  0.85900755  0.63042310     2.26400
Zr2576     Zr  0.81495287  0.89651980  0.66627538     2.06300
Zr2577     Zr  0.66667950  0.81578821  0.66149326     2.10000
Zr2578     Zr  0.74264456  0.93036382  0.66651421     1.78800
O2579       O  0.62079045  0.74551575  0.65471600    -0.92200
O2580       O  0.79595235  0.99773139  0.67133880    -0.40000
O2581       O  0.70720730  0.87571073  0.64688594    -0.76600
O2582       O  0.77973213  0.91605159  0.64951168    -0.95300
O2583       O  0.77980885  0.84065308  0.64689147    -0.88600
O2584       O  0.70215126  0.79864064  0.64428622    -0.91400
C2585       C  0.73458776  0.93868262  0.70913319     1.02300
C2586       C  0.64658215  0.78297491  0.70222877     1.15300
C2587       C  0.82773508  0.88590484  0.70898287     1.06000
O2588       O  0.86511284  0.96501033  0.67270712    -0.93600
O2589       O  0.84764331  0.92827025  0.64060967    -0.89300
O2590       O  0.80363093  0.90870800  0.62006446    -0.82500
C2591       C  0.83682326  0.92931867  0.62544579     1.12700
O2592       O  0.72702093  0.73540303  0.68442374    -0.95600
Zr2593     Zr  0.73787562  0.78117964  0.66130253     1.88900
O2594       O  0.74352346  0.80386508  0.61501292    -0.72200
O2595       O  0.85445293  0.86975493  0.66199657    -0.51500
O2596       O  0.78780500  0.76941027  0.66534577    -0.96200
O2597       O  0.68432143  0.71418090  0.65576667    -0.53400
O2598       O  0.74893201  0.76333471  0.63379656    -0.72700
C2599       C  0.74801860  0.77465129  0.61876757     0.99600
O2600       O  0.74331550  0.87564952  0.60074359    -0.61500
O2601       O  0.62281185  0.83714513  0.66444958    -0.56300
O2602       O  0.68944518  0.85016180  0.61656934    -0.93000
O2603       O  0.64164179  0.81489736  0.63371918    -0.91500
O2604       O  0.69325298  0.94341596  0.66388744    -0.91800
O2605       O  0.74732788  0.97269322  0.64298272    -0.90600
C2606       C  0.65538815  0.83119617  0.61962483     1.18500
H2607       H  0.68551208  0.87487119  0.68806616     0.34400
H2608       H  0.79494684  0.94108532  0.64385132     0.45300
H2609       H  0.68680268  0.77745833  0.63611020     0.38800
H2610       H  0.78738159  0.82681543  0.68755832     0.35300
H2611       H  0.79691685  0.50378377  0.68663326     0.27000
H2612       H  0.87934028  0.89333278  0.66396533     0.33000
H2613       H  0.77969081  0.74330025  0.65936704     0.38900
H2614       H  0.67438870  0.92406545  0.67149109     0.33400
H2615       H  0.59888896  0.81232297  0.66206443     0.32200
H2616       H  0.59787465  0.74205138  0.65894393     0.33900
H2617       H  0.67740356  0.71354417  0.64369959     0.32900
H2618       H  0.73575924  0.95357092  0.63319306     0.36900
H2619       H  0.75450128  0.90537341  0.60055769     0.29600
H2620       H  0.74452979  0.84876251  0.73374791     0.33800
H2621       H  0.72639064  0.71157496  0.67926952     0.36700
H2622       H  0.62280055  0.84289805  0.67670022     0.29300
H2623       H  0.76066684  0.87022296  0.59500814     0.42200
H2624       H  0.85896365  0.98260597  0.66632829     0.32200
H2625       H  0.80590474  0.99684010  0.68261264     0.39900
H2626       H  0.66478878  0.71432434  0.66212036     0.31700
H2627       H  0.85037848  0.85238722  0.67180935     0.31800
H2628       H  0.73899236  0.80820700  0.72593657     0.32000
C2629       C  0.90124082  0.90399364  0.42120989     0.81200
N2630       N  0.89970607  0.87460674  0.41098848    -0.77100
C2631       C  0.86959276  0.85112904  0.40100664     0.83700
N2632       N  0.84128631  0.85706391  0.40126790    -0.77000
C2633       C  0.84268869  0.88608804  0.41158460     0.83800
N2634       N  0.87272182  0.90966037  0.42138199    -0.78700
C2635       C  0.01409308  0.72177837  0.42680940     0.81200
N2636       N  0.00903936  0.69483278  0.43895938    -0.77100
C2637       C  0.55552054  0.72066213  0.45654308     0.83700
N2638       N  0.58870169  0.75516233  0.45667962    -0.77000
C2639       C  0.59600378  0.78386818  0.44518985     0.83800
N2640       N  0.57038384  0.77790119  0.43344423    -0.78700
C2641       C  0.72133695  0.55144655  0.39960607     0.81200
N2642       N  0.72276428  0.51722049  0.40012588    -0.77100
C2643       C  0.68648634  0.97703416  0.39952166     0.83700
N2644       N  0.66226897  0.98029856  0.40892520    -0.77000
C2645       C  0.66721232  0.51943956  0.41479687     0.83800
N2646       N  0.69393631  0.55289274  0.40725514    -0.78700
C2647       C  0.74657421  0.86564921  0.41340769     0.04100
C2648       C  0.74591718  0.89860057  0.40667257    -0.12000
C2649       C  0.71639438  0.90332889  0.40938046     0.01600
C2650       C  0.68833628  0.87594680  0.41968312    -0.10500
C2651       C  0.68875181  0.84297117  0.42661200     0.04100
C2652       C  0.71763176  0.83747187  0.42301100    -0.10000
H2653       H  0.76806684  0.92014491  0.39905914     0.09700
H2654       H  0.66601736  0.88018680  0.42216232     0.07300
H2655       H  0.71799639  0.81171960  0.42798536     0.07100
Zr2656     Zr  0.58355551  0.52732879  0.53493838     2.17500
O2657       O  0.58309123  0.01295744  0.56507205    -0.50300
O2658       O  0.63808230  0.57568492  0.55083071    -0.73500
O2659       O  0.61205733  0.98580337  0.54298051    -0.80300
O2660       O  0.54109040  0.58955052  0.54146970    -0.82100
O2661       O  0.61697324  0.95634029  0.51890484    -0.77700
O2662       O  0.55735198  0.55023116  0.55562688    -0.89300
O2663       O  0.67736122  0.61843211  0.53158005    -0.75300
O2664       O  0.62863968  0.53951016  0.51495285    -0.84800
O2665       O  0.60362996  0.59270239  0.52426305    -0.84500
O2666       O  0.56508768  0.97947240  0.51650150    -0.71200
O2667       O  0.53077212  0.52364917  0.52245079    -0.83400
Zr2668     Zr  0.56650245  0.54862642  0.47021887     2.26400
Zr2669     Zr  0.59807305  0.48654134  0.49397105     2.06300
Zr2670     Zr  0.55178662  0.58912494  0.51140934     2.10000
Zr2671     Zr  0.64779575  0.60443162  0.50401441     1.78800
O2672       O  0.98887504  0.57862163  0.51237332    -0.92200
O2673       O  0.70425640  0.60624725  0.49906862    -0.40000
O2674       O  0.59665889  0.60290911  0.49083417    -0.76600
O2675       O  0.61934962  0.55218205  0.48274373    -0.95300
O2676       O  0.54601537  0.48297024  0.48082121    -0.88600
O2677       O  0.52154012  0.53633890  0.49030026    -0.91400
C2678       C  0.66887937  0.60559959  0.54666880     1.02300
C2679       C  0.54380369  0.57280754  0.55487882     1.15300
C2680       C  0.61681632  0.95983755  0.53508449     1.06000
O2681       O  0.65830089  0.49681597  0.49040159    -0.93600
O2682       O  0.60433371  0.48052929  0.46377823    -0.89300
O2683       O  0.59195412  0.52329449  0.44979992    -0.82500
C2684       C  0.60312577  0.49837702  0.45043142     1.12700
O2685       O  0.95666991  0.93793181  0.52317030    -0.95600
Zr2686     Zr  0.51202973  0.97447654  0.50369918     1.88900
O2687       O  0.50935713  0.50457577  0.45543794    -0.72200
O2688       O  0.57767098  0.91984563  0.48691155    -0.51500
O2689       O  0.48946440  0.90291971  0.49881643    -0.96200
O2690       O  0.94191016  0.98938446  0.50807134    -0.53400
O2691       O  0.95336103  0.96514982  0.47337094    -0.72700
C2692       C  0.48636463  0.96783819  0.46149453     0.99600
O2693       O  0.59362692  0.58532404  0.44447174    -0.61500
O2694       O  0.58604352  0.66024859  0.52030819    -0.56300
O2695       O  0.54973219  0.59830051  0.46392242    -0.93000
O2696       O  0.54344732  0.62496949  0.48852598    -0.91500
O2697       O  0.66778504  0.67473308  0.51069566    -0.91800
O2698       O  0.68115875  0.64656250  0.48043852    -0.90600
C2699       C  0.54372100  0.62274639  0.47230465     1.18500
H2700       H  0.61341347  0.61339228  0.53314560     0.34400
H2701       H  0.63733271  0.55813841  0.47431768     0.45300
H2702       H  0.50151980  0.53721402  0.48507221     0.38800
H2703       H  0.55703721  0.95435057  0.52212617     0.35300
H2704       H  0.72323954  0.63095053  0.50523412     0.27000
H2705       H  0.59704440  0.91581202  0.48262475     0.33000
H2706       H  0.96702785  0.90360505  0.48046658     0.38900
H2707       H  0.65738562  0.68296186  0.50143597     0.33400
H2708       H  0.59695576  0.67517903  0.50986704     0.32200
H2709       H  0.99308250  0.60445482  0.51726114     0.33900
H2710       H  0.93060131  0.99208335  0.49755173     0.32900
H2711       H  0.66213437  0.64460110  0.47255830     0.36900
H2712       H  0.57296702  0.58041426  0.43697691     0.29600
H2713       H  0.60608757  0.01757248  0.57024658     0.33800
H2714       H  0.93170780  0.91836894  0.51884078     0.36700
H2715       H  0.56733292  0.66679834  0.52309103     0.29300
H2716       H  0.60626109  0.61440783  0.44773747     0.42200
H2717       H  0.66999996  0.51877720  0.48217862     0.32200
H2718       H  0.70234143  0.58366638  0.50564648     0.39900
H2719       H  0.95523388  0.01698394  0.51324377     0.31700
H2720       H  0.57024306  0.90465416  0.49753178     0.31800
H2721       H  0.56680428  0.98318927  0.56413263     0.32000
C2722       C  0.88866791  0.99356677  0.24813871     0.81200
N2723       N  0.91381559  0.98234641  0.24829291    -0.77100
C2724       C  0.94542761  0.00464207  0.25737942     0.83700
N2725       N  0.94638773  0.52925026  0.26567186    -0.77000
C2726       C  0.91590820  0.53116170  0.26623340     0.83800
N2727       N  0.89534272  0.02721543  0.25690747    -0.78700
C2728       C  0.73865515  0.63589733  0.25648369     0.81200
N2729       N  0.74540695  0.66702688  0.24632118    -0.77100
C2730       C  0.71718573  0.66712204  0.23824213     0.83700
N2731       N  0.68235956  0.63650908  0.24069436    -0.77000
C2732       C  0.67599356  0.60545248  0.25077177     0.83800
N2733       N  0.70416067  0.60546629  0.25846597    -0.78700
C2734       C  0.56206524  0.82191472  0.26578051     0.81200
N2735       N  0.58142794  0.81300386  0.25496087    -0.77100
C2736       C  0.60175795  0.83987239  0.24296569     0.83700
N2737       N  0.60187636  0.87483018  0.24173606    -0.77000
C2738       C  0.58232669  0.88356737  0.25219064     0.83800
N2739       N  0.56260998  0.85721292  0.26433641    -0.78700
C2740       C  0.52938917  0.00477578  0.25112478     0.04100
C2741       C  0.52901945  0.96895592  0.25405533    -0.12000
C2742       C  0.56139224  0.96868395  0.25431338     0.01600
C2743       C  0.59447000  0.00497955  0.25188678    -0.10500
C2744       C  0.57317122  0.53219982  0.25482669     0.04100
C2745       C  0.54427426  0.53548547  0.26054625    -0.10000
H2746       H  0.50340700  0.94111732  0.25592873     0.09700
H2747       H  0.61948489  0.00485924  0.25209941     0.07300
H2748       H  0.54685476  0.56487556  0.26105309     0.07100
Zr2749     Zr  0.73407692  0.83044494  0.20262272     2.17500
O2750       O  0.70917876  0.80952270  0.23073124    -0.50300
O2751       O  0.78366515  0.87892833  0.22153718    -0.73500
O2752       O  0.74132951  0.77615602  0.21348835    -0.80300
O2753       O  0.67458073  0.87521872  0.19408932    -0.82100
O2754       O  0.77644990  0.76496946  0.19580549    -0.77700
O2755       O  0.68415882  0.83723780  0.21277648    -0.89300
O2756       O  0.82531068  0.93151489  0.20634232    -0.75300
O2757       O  0.79109574  0.85224266  0.19016407    -0.84800
O2758       O  0.75297431  0.89402947  0.19008784    -0.84500
O2759       O  0.72146319  0.77737879  0.18232040    -0.71200
O2760       O  0.68764960  0.81838683  0.18198349    -0.83400
Zr2761     Zr  0.75337905  0.85017448  0.13609027     2.26400
Zr2762     Zr  0.77916264  0.79989123  0.16990410     2.06300
Zr2763     Zr  0.70784639  0.88172525  0.16884813     2.10000
Zr2764     Zr  0.80905876  0.91478407  0.17697173     1.78800
O2765       O  0.64734790  0.86819725  0.16148753    -0.92200
O2766       O  0.87064326  0.92757058  0.17934665    -0.40000
O2767       O  0.76433534  0.90302941  0.15588388    -0.76600
O2768       O  0.80025097  0.86383814  0.15683290    -0.95300
O2769       O  0.73349735  0.78677367  0.14874182    -0.88600
O2770       O  0.69639438  0.83028982  0.14830871    -0.91400
C2771       C  0.81312429  0.91325479  0.22020917     1.02300
C2772       C  0.66858416  0.85631945  0.20798630     1.15300
C2773       C  0.75850426  0.75843606  0.20939559     1.06000
O2774       O  0.83954103  0.81630463  0.17934903    -0.93600
O2775       O  0.81037279  0.80244267  0.14424339    -0.89300
O2776       O  0.79829445  0.83668666  0.12463492    -0.82500
C2777       C  0.81433113  0.81838643  0.12969752     1.12700
O2778       O  0.63333026  0.71644178  0.17984687    -0.95600
Zr2779     Zr  0.67722110  0.76763969  0.16131930     1.88900
O2780       O  0.70767322  0.79997360  0.11635494    -0.72200
O2781       O  0.75968304  0.73094701  0.16093415    -0.51500
O2782       O  0.67133662  0.70243388  0.15579471    -0.96200
O2783       O  0.61628167  0.75694218  0.15923862    -0.53400
O2784       O  0.66079505  0.75409861  0.13184030    -0.72700
C2785       C  0.67561521  0.76922343  0.11782454     0.99600
O2786       O  0.77955903  0.88540819  0.10993448    -0.61500
O2787       O  0.73172746  0.95196025  0.17755884    -0.56300
O2788       O  0.74515854  0.90309197  0.12504376    -0.93000
O2789       O  0.70911536  0.91371698  0.14231442    -0.91500
O2790       O  0.81564202  0.98099689  0.18020455    -0.91800
O2791       O  0.84994083  0.96400243  0.15693680    -0.90600
C2792       C  0.72683337  0.91965648  0.12869040     1.18500
H2793       H  0.75527817  0.91362080  0.19849268     0.34400
H2794       H  0.82359035  0.87390384  0.15182457     0.45300
H2795       H  0.67884892  0.82807995  0.13991770     0.38800
H2796       H  0.71149103  0.75099027  0.18706452     0.35300
H2797       H  0.88324986  0.94972825  0.18796303     0.27000
H2798       H  0.77925609  0.72679983  0.16515003     0.33000
H2799       H  0.64944602  0.68736558  0.14828741     0.38900
H2800       H  0.80856985  0.98233017  0.19193903     0.33400
H2801       H  0.74434693  0.96793829  0.16757044     0.32200
H2802       H  0.64999761  0.89517558  0.16134618     0.33900
H2803       H  0.61401479  0.76527176  0.14771338     0.32900
H2804       H  0.83395039  0.96200597  0.14732648     0.36900
H2805       H  0.80621052  0.90124221  0.11202878     0.29600
H2806       H  0.72917895  0.81175835  0.23797295     0.33800
H2807       H  0.64291285  0.72714511  0.19145350     0.36700
H2808       H  0.71001603  0.95431695  0.17847434     0.29300
H2809       H  0.77516393  0.86423678  0.10140251     0.42200
H2810       H  0.85631108  0.83652497  0.17131859     0.32200
H2811       H  0.86798802  0.90349505  0.18493995     0.39900
H2812       H  0.61725984  0.77807655  0.16682863     0.31700
H2813       H  0.73872166  0.71361249  0.16804104     0.31800
H2814       H  0.69121452  0.78012804  0.22960848     0.32000
Zr2815     Zr  0.90785316  0.69942809  0.30089149     2.17500
O2816       O  0.91661842  0.73327344  0.27398202    -0.50300
O2817       O  0.90747856  0.64448562  0.28521082    -0.73500
O2818       O  0.97123484  0.74366875  0.29388127    -0.80300
O2819       O  0.80654289  0.65163739  0.29753782    -0.82100
O2820       O  0.51764022  0.78874451  0.32214703    -0.77700
O2821       O  0.85773659  0.68886059  0.28260763    -0.89300
O2822       O  0.90284037  0.59898066  0.30436832    -0.75300
O2823       O  0.94110671  0.68327186  0.32026911    -0.84800
O2824       O  0.86450260  0.63646646  0.31258683    -0.84500
O2825       O  0.93496842  0.75449747  0.32139672    -0.71200
O2826       O  0.86483210  0.71108581  0.31461979    -0.83400
Zr2827     Zr  0.88235557  0.68540736  0.36752155     2.26400
Zr2828     Zr  0.96703172  0.73692549  0.34127501     2.06300
Zr2829     Zr  0.82264113  0.64839883  0.32689670     2.10000
Zr2830     Zr  0.89765178  0.62089835  0.33223964     1.78800
O2831       O  0.77581973  0.66565878  0.32833096    -0.92200
O2832       O  0.95183930  0.61633621  0.33481241    -0.40000
O2833       O  0.85508273  0.63144241  0.34665859    -0.76600
O2834       O  0.92523474  0.67333156  0.35359808    -0.95300
O2835       O  0.92464246  0.74842597  0.35554953    -0.88600
O2836       O  0.84866155  0.70139506  0.34815262    -0.91400
C2837       C  0.90561905  0.61147580  0.28923317     1.02300
C2838       C  0.82318290  0.66896283  0.28399327     1.15300
C2839       C  0.50940383  0.78152704  0.30626851     1.06000
O2840       O  0.01470205  0.72095144  0.34229844    -0.93600
O2841       O  0.98509598  0.74107716  0.37082307    -0.89300
O2842       O  0.93487598  0.70389611  0.38638804    -0.82500
C2843       C  0.96947468  0.72561601  0.38473938     1.12700
O2844       O  0.89589399  0.81039361  0.31435270    -0.95600
Zr2845     Zr  0.89141337  0.76366319  0.33586402     1.88900
O2846       O  0.88226813  0.74001916  0.38302753    -0.72200
O2847       O  0.00741345  0.80768726  0.34982736    -0.51500
O2848       O  0.94450410  0.83151396  0.33968583    -0.96200
O2849       O  0.83783065  0.76918137  0.33220882    -0.53400
O2850       O  0.88400762  0.78374006  0.36366434    -0.72700
C2851       C  0.88242846  0.77196501  0.37884942     0.99600
O2852       O  0.86552693  0.64652168  0.39334140    -0.61500
O2853       O  0.77903300  0.57896858  0.31749132    -0.56300
O2854       O  0.81922702  0.63787438  0.37469729    -0.93000
O2855       O  0.78692893  0.60881524  0.35012086    -0.91500
O2856       O  0.84360476  0.55331513  0.33083533    -0.91800
O2857       O  0.89420143  0.57373745  0.35326808    -0.90600
C2858       C  0.79038079  0.61169661  0.36628907     1.18500
H2859       H  0.85145074  0.61542183  0.30401567     0.34400
H2860       H  0.93765064  0.66541908  0.36149316     0.45300
H2861       H  0.82997005  0.70325269  0.35395340     0.38800
H2862       H  0.95130200  0.77955269  0.31601637     0.35300
H2863       H  0.94493036  0.59012052  0.32924986     0.27000
H2864       H  0.54957055  0.83766514  0.35583047     0.33000
H2865       H  0.93628709  0.84642614  0.34674400     0.38900
H2866       H  0.83618152  0.54808046  0.31869002     0.33400
H2867       H  0.75525676  0.57717059  0.31719937     0.32200
H2868       H  0.75628312  0.64414708  0.33500639     0.33900
H2869       H  0.82182697  0.75406596  0.34160459     0.32900
H2870       H  0.88721292  0.58195984  0.36376270     0.36900
H2871       H  0.88010874  0.63347234  0.39368332     0.29600
H2872       H  0.93194022  0.72650545  0.26719099     0.33800
H2873       H  0.89806612  0.79849686  0.30358867     0.36700
H2874       H  0.78411331  0.57708636  0.30544832     0.29300
H2875       H  0.87532945  0.66672066  0.40283142     0.42200
H2876       H  0.00730933  0.70043965  0.35114084     0.32200
H2877       H  0.96935940  0.63685509  0.32708747     0.39900
H2878       H  0.82502995  0.75245635  0.32193161     0.31700
H2879       H  0.52526682  0.84756723  0.34437679     0.31800
H2880       H  0.93198866  0.76263297  0.27665706     0.32000
C2881       C  0.58353238  0.92190797  0.25006361    -0.15400
C2882       C  0.56006232  0.93019359  0.25725018    -0.30600
H2883       H  0.60353311  0.94322130  0.24149470     0.13600
H2884       H  0.53818636  0.90740525  0.26467787     0.14200
C2885       C  0.53827351  0.80607443  0.29434956    -0.15400
C2886       C  0.53905004  0.79301764  0.27859662    -0.30600
H2887       H  0.55824482  0.83703914  0.29828835     0.13600
H2888       H  0.52110054  0.76145987  0.27481597     0.14200
C2889       C  0.62520325  0.83277760  0.23174679    -0.15400
C2890       C  0.64235600  0.85814047  0.21904361    -0.30600
H2891       H  0.62911320  0.80770182  0.23410907     0.13600
H2892       H  0.63684169  0.88193668  0.21636129     0.14200
C2893       C  0.63955379  0.57116764  0.25404338    -0.15400
C2894       C  0.60800851  0.56890967  0.25037405    -0.30600
H2895       H  0.63916474  0.54679394  0.26087240     0.13600
H2896       H  0.60788727  0.59454721  0.24503221     0.14200
C2897       C  0.72342476  0.70114612  0.22766623    -0.15400
C2898       C  0.75532401  0.72653503  0.22054270    -0.30600
H2899       H  0.70021418  0.70436756  0.22503086     0.13600
H2900       H  0.77790740  0.72165376  0.22175337     0.14200
C2901       C  0.80083744  0.66701366  0.26924631    -0.15400
C2902       C  0.76654664  0.63607425  0.26747093    -0.30600
H2903       H  0.81163796  0.69202441  0.26061766     0.13600
H2904       H  0.75706865  0.61081605  0.27594847     0.14200
C2905       C  0.49139539  0.03438460  0.25569314    -0.15400
C2906       C  0.49465604  0.00367875  0.24993250    -0.30600
H2907       H  0.96810236  0.96662471  0.25064366     0.13600
H2908       H  0.48932511  0.53561895  0.27633202     0.14200
C2909       C  0.85696687  0.97300717  0.23662780    -0.15400
C2910       C  0.83616347  0.93263343  0.23541360    -0.30600
H2911       H  0.85239081  0.99160926  0.22796733     0.13600
H2912       H  0.83890964  0.91391502  0.24472427     0.14200
C2913       C  0.91384307  0.55695216  0.27924597    -0.15400
C2914       C  0.90607821  0.58542932  0.27560385    -0.30600
H2915       H  0.92200145  0.55458159  0.29206856     0.13600
H2916       H  0.90097713  0.59011919  0.26255879     0.14200
C2917       C  0.71659961  0.93876110  0.40246755    -0.15400
C2918       C  0.68589756  0.93902696  0.39982974    -0.30600
H2919       H  0.74274849  0.96640395  0.40104660     0.13600
H2920       H  0.65955517  0.91165797  0.40101829     0.14200
C2921       C  0.75945416  0.58044349  0.37547786    -0.15400
C2922       C  0.74974599  0.58645484  0.39073862    -0.30600
H2923       H  0.74379343  0.55070374  0.36930456     0.13600
H2924       H  0.76267111  0.61648110  0.39660992     0.14200
C2925       C  0.61836726  0.49130293  0.43525240    -0.15400
C2926       C  0.63988144  0.52166642  0.42501578    -0.30600
H2927       H  0.62962557  0.96636915  0.43596922     0.13600
H2928       H  0.64147616  0.55054803  0.42619634     0.14200
C2929       C  0.63285281  0.81807208  0.44324377    -0.15400
C2930       C  0.65748988  0.81164532  0.43602139    -0.30600
H2931       H  0.63675168  0.84803188  0.44415946     0.13600
H2932       H  0.65232271  0.78099877  0.43532392     0.14200
C2933       C  0.99423215  0.73399746  0.39942798    -0.15400
C2934       C  0.98540534  0.71272236  0.41376247    -0.30600
H2935       H  0.02230988  0.75773590  0.39768897     0.13600
H2936       H  0.95794841  0.68745692  0.41538918     0.14200
C2937       C  0.54986785  0.68872400  0.46819139    -0.15400
C2938       C  0.53820490  0.65112489  0.46233070    -0.30600
H2939       H  0.56212308  0.69795387  0.48085328     0.13600
H2940       H  0.52986417  0.64339623  0.44906684     0.14200
C2941       C  0.81173412  0.89168795  0.41262479    -0.15400
C2942       C  0.77754562  0.86045424  0.41058782    -0.30600
H2943       H  0.81692211  0.92123805  0.41664947     0.13600
H2944       H  0.77227660  0.83006490  0.40836672     0.14200
C2945       C  0.86820051  0.82159006  0.38885106    -0.15400
C2946       C  0.88151255  0.79789602  0.39232698    -0.30600
H2947       H  0.85490663  0.81868867  0.37663311     0.13600
H2948       H  0.89202310  0.79801850  0.40495266     0.14200
C2949       C  0.93323225  0.92909232  0.43233802    -0.15400
C2950       C  0.93130117  0.95009917  0.44549807    -0.30600
H2951       H  0.95787696  0.92854178  0.43037418     0.13600
H2952       H  0.90576190  0.94783387  0.44840491     0.14200
C2953       C  0.91614574  0.59581828  0.57874233    -0.15400
C2954       C  0.93364885  0.62047955  0.56592366    -0.30600
H2955       H  0.89589974  0.59846610  0.58566171     0.13600
H2956       H  0.95469496  0.61826435  0.55951773     0.14200
C2957       C  0.89878833  0.98097759  0.61611259    -0.15400
C2958       C  0.86270512  0.95839014  0.61342069    -0.30600
H2959       H  0.90414719  0.46989260  0.62223892     0.13600
H2960       H  0.85103935  0.96314307  0.60200331     0.14200
C2961       C  0.51102810  0.54878054  0.58134775    -0.15400
C2962       C  0.52755685  0.57819605  0.57001842    -0.30600
H2963       H  0.99992546  0.51834689  0.57577231     0.13600
H2964       H  0.52201635  0.60256084  0.56969831     0.14200
C2965       C  0.49345541  0.74832609  0.55564345    -0.15400
C2966       C  0.52398601  0.75585923  0.56384848    -0.30600
H2967       H  0.49298821  0.77207796  0.54868744     0.13600
H2968       H  0.52337193  0.73337044  0.57214520     0.14200
C2969       C  0.64038410  0.84820788  0.59177346    -0.15400
C2970       C  0.62980497  0.82679690  0.60600333    -0.30600
H2971       H  0.66856478  0.87191852  0.59032294     0.13600
H2972       H  0.60118649  0.80479406  0.60771409     0.14200
C2973       C  0.60156206  0.89112810  0.54125359    -0.15400
C2974       C  0.61996383  0.93064493  0.54558444    -0.30600
H2975       H  0.58607916  0.88101034  0.52932267     0.13600
H2976       H  0.63215445  0.94042863  0.55823265     0.14200
C2977       C  0.85763180  0.71141773  0.57501070    -0.15400
C2978       C  0.86189581  0.68740304  0.56410627    -0.30600
H2979       H  0.88065343  0.73452248  0.58254955     0.13600
H2980       H  0.83839192  0.66230325  0.55756931     0.14200
C2981       C  0.77631405  0.73991959  0.60662545    -0.15400
C2982       C  0.75294428  0.75276855  0.60484481    -0.30600
H2983       H  0.79297143  0.74726603  0.61815018     0.13600
H2984       H  0.73890191  0.74908220  0.59277161     0.14200
C2985       C  0.69643461  0.62764285  0.56015275    -0.15400
C2986       C  0.73151091  0.65006480  0.55632142    -0.30600
H2987       H  0.68809898  0.62550637  0.57319360     0.13600
H2988       H  0.73993923  0.64951895  0.54347688     0.14200
C2989       C  0.53386353  0.62383146  0.74519448    -0.15400
C2990       C  0.56033269  0.61673963  0.74143736    -0.30600
H2991       H  0.51084479  0.60203120  0.75235103     0.13600
H2992       H  0.58478704  0.63990606  0.73550809     0.14200
C2993       C  0.58749017  0.75285202  0.71584128    -0.15400
C2994       C  0.61942390  0.75527793  0.71398836    -0.30600
H2995       H  0.58166234  0.77334622  0.70920886     0.13600
H2996       H  0.62649078  0.73728982  0.72177742     0.14200
C2997       C  0.48708252  0.71123985  0.75490738    -0.15400
C2998       C  0.01726565  0.73279303  0.77350168    -0.30600
H2999       H  0.98105039  0.68719946  0.75620971     0.13600
H3000       H  0.04567619  0.75274341  0.77732086     0.14200
C3001       C  0.62535454  0.51247916  0.75157619    -0.15400
C3002       C  0.62195220  0.54276396  0.75778099    -0.30600
H3003       H  0.60308926  0.48787864  0.74421082     0.13600
H3004       H  0.64535712  0.56942336  0.76358262     0.14200
C3005       C  0.74443747  0.55873867  0.77865245    -0.15400
C3006       C  0.78008938  0.57547597  0.77616572    -0.30600
H3007       H  0.73517391  0.56409023  0.79055919     0.13600
H3008       H  0.78926662  0.57238655  0.76381414     0.14200
C3009       C  0.73015670  0.96204126  0.72259716    -0.15400
C3010       C  0.70844539  0.97683132  0.71973985    -0.30600
H3011       H  0.74555120  0.96841165  0.73446133     0.13600
H3012       H  0.69127637  0.96771014  0.70830808     0.14200
C3013       C  0.96920761  0.95102244  0.75797308    -0.15400
C3014       C  0.99937889  0.96003941  0.76697736    -0.30600
H3015       H  0.97011670  0.97211851  0.74880230     0.13600
H3016       H  0.46479221  0.46594185  0.74362808     0.14200
C3017       C  0.88442167  0.77958204  0.77733879    -0.15400
C3018       C  0.89218210  0.81700564  0.78181247    -0.30600
H3019       H  0.87936853  0.76991774  0.76407625     0.13600
H3020       H  0.90054643  0.82797248  0.79481629     0.14200
C3021       C  0.85424170  0.89049890  0.72222253    -0.15400
C3022       C  0.84645409  0.86425334  0.73485139    -0.30600
H3023       H  0.88200473  0.91531066  0.72079731     0.13600
H3024       H  0.81926454  0.83795086  0.73577330     0.14200
C3025       C  0.52527029  0.74850504  0.88165053    -0.15400
C3026       C  0.52267716  0.76003941  0.89735481    -0.30600
H3027       H  0.55149858  0.75538970  0.87708742     0.13600
H3028       H  0.49729394  0.75640238  0.90156378     0.14200
C3029       C  0.59224928  0.85871717  0.94295012    -0.15400
C3030       C  0.57470615  0.87875097  0.94109815    -0.30600
H3031       H  0.60980627  0.86453635  0.95401962     0.13600
H3032       H  0.55943018  0.87529518  0.92944612     0.14200
C3033       C  0.64212689  0.78564136  0.91416506    -0.15400
C3034       C  0.67701296  0.81479522  0.91668507    -0.30600
H3035       H  0.63520669  0.75697195  0.90818417     0.13600
H3036       H  0.68372819  0.84473734  0.92102852     0.14200
C3037       C  0.75639655  0.71933878  0.90812573    -0.15400
C3038       C  0.73057731  0.72790472  0.91146420    -0.30600
H3039       H  0.78216277  0.74170173  0.90304460     0.13600
H3040       H  0.70522911  0.70432225  0.91660662     0.14200
C3041       C  0.80073357  0.62784904  0.90238334    -0.15400
C3042       C  0.79218365  0.60450574  0.88832458    -0.30600
H3043       H  0.82896528  0.65080195  0.90520718     0.13600
H3044       H  0.76368672  0.58451961  0.88466268     0.14200
C3045       C  0.68348382  0.58250417  0.92942563    -0.15400
C3046       C  0.68659612  0.56346163  0.94279657    -0.30600
H3047       H  0.65851266  0.58252576  0.92726857     0.13600
H3048       H  0.71286145  0.56726730  0.94600530     0.14200
C3049       C  0.83362505  0.88198266  0.89874489    -0.15400
C3050       C  0.80050098  0.87472189  0.89444447    -0.30600
H3051       H  0.83638559  0.85987902  0.90586505     0.13600
H3052       H  0.79786279  0.89864850  0.88889626     0.14200
C3053       C  0.90348487  0.51759415  0.88206942    -0.15400
C3054       C  0.91943164  0.55761615  0.88507974    -0.30600
H3055       H  0.88903769  0.50465792  0.87004615     0.13600
H3056       H  0.93071842  0.57026374  0.89763232     0.14200
C3057       C  0.95039449  0.98217333  0.92367747    -0.15400
C3058       C  0.94162897  0.96068612  0.93796062    -0.30600
H3059       H  0.97988429  0.50281287  0.92845054     0.13600
H3060       H  0.91359788  0.93705590  0.93989525     0.14200
C3061       C  0.84385436  0.60121868  0.08606369    -0.15400
C3062       C  0.81324483  0.59953107  0.08098264    -0.30600
H3063       H  0.84227709  0.57532091  0.09210889     0.13600
H3064       H  0.81458656  0.62395669  0.07379934     0.14200
C3065       C  0.72693068  0.94823940  0.11649367    -0.15400
C3066       C  0.75517864  0.96891148  0.10634957    -0.30600
H3067       H  0.70513616  0.95454742  0.11665278     0.13600
H3068       H  0.77845336  0.96517994  0.10741276     0.14200
C3069       C  0.68334587  0.52675256  0.06833572    -0.15400
C3070       C  0.69010911  0.54658828  0.05370415    -0.30600
H3071       H  0.65564613  0.50484674  0.07170253     0.13600
H3072       H  0.73497078  0.06620608  0.04871134     0.14200
C3073       C  0.91045036  0.76232669  0.09018528    -0.15400
C3074       C  0.92806052  0.75082975  0.07989608    -0.30600
H3075       H  0.89337428  0.74200612  0.09987875     0.13600
H3076       H  0.94655508  0.77142166  0.07065455     0.14200
C3077       C  0.85503395  0.83979181  0.10511458    -0.15400
C3078       C  0.83966801  0.81559437  0.11837447    -0.30600
H3079       H  0.84897083  0.86303817  0.10217932     0.13600
H3080       H  0.84723315  0.79373454  0.12168489     0.14200
C3081       C  0.94950106  0.88986935  0.06174813    -0.15400
C3082       C  0.93740456  0.90354710  0.04922205    -0.30600
H3083       H  0.97784037  0.89837330  0.06220251     0.13600
H3084       H  0.90853055  0.89206018  0.04758707     0.14200
C3085       C  0.00782071  0.68087206  0.08411854    -0.15400
C3086       C  0.97421760  0.65580002  0.07766317    -0.30600
H3087       H  0.01467443  0.70923818  0.09036778     0.13600
H3088       H  0.96708067  0.62633966  0.07247105     0.14200
C3089       C  0.65274395  0.75102636  0.10253655    -0.15400
C3090       C  0.61762025  0.73964337  0.10318114    -0.30600
H3091       H  0.66459984  0.74930735  0.09076628     0.13600
H3092       H  0.60726380  0.74538867  0.11466661     0.14200
C3093       C  0.58737008  0.63240747  0.05418976    -0.15400
C3094       C  0.57457805  0.65665848  0.05077161    -0.30600
H3095       H  0.59671415  0.63138401  0.06694384     0.13600
H3096       H  0.56222734  0.65486587  0.03841424     0.14200
loop_ 
_geom_bond_atom_site_label_1 
_geom_bond_atom_site_label_2 
_geom_bond_distance 
_geom_bond_site_symmetry_2 
_ccdc_geom_bond_type 
C1            N2   1.358       .  A
C1            N6   1.358       .  A
C1          C768   1.467       .  S
N2            C3   1.356       .  A
C3            N4   1.356       .  A
C3          C772   1.463       .  S
N4         C1553   1.357       .  A
C5         N1552   1.357       .  A
C5         N1554   1.352       .  A
C5          C763   1.467       .  S
N6         C1553   1.356       .  A
C7            N8   1.356       .  A
C7           N12   1.363       .  A
C7          C759   1.473       .  S
N8            C9   1.356       .  A
C9           N10   1.354       .  A
C9          C751   1.472       .  S
N10          C11   1.358       .  A
C11          N12   1.363       .  A
C11         C755   1.479       .  S
C13          N18   1.356       .  A
C13         N788   1.365   1_545  A
C13         C747   1.484       .  S
N14          C15   1.365       .  A
N14         C787   1.366       .  A
C15         N790   1.355       .  A
C15         C744   1.467       .  S
N16          C17   1.355       .  A
N16         C789   1.359   1_545  A
C17          N18   1.349       .  A
C17         C740   1.469       .  S
C19         C764   1.478       .  S
C19          C20   1.403       .  A
C19          C24   1.406       .  A
C20          C21   1.403       .  A
C20          H25   1.084       .  S
C21         C739   1.484       .  S
C21          C22   1.408       .  A
C22          C23   1.402       .  A
C22          H26   1.081       .  S
C23         C752   1.480       .  S
C23          C24   1.397       .  A
C24          H27   1.084       .  S
C28          N33   1.360       .  A
C28         N803   1.353       .  A
C28         C731   1.463       .  S
N29          C30   1.356       .  A
N29         C802   1.355       .  A
C30          N31   1.351       .  A
C30         C727   1.470       .  S
N31          C32   1.358       .  A
C32         N807   1.361       .  A
C32         C735   1.473       .  S
N33         C806   1.360       .  A
C34          N35   1.355       .  A
C34          N39   1.362       .  A
C34         C723   1.470       .  S
N35          C36   1.357       .  A
C36          N37   1.352       .  A
C36         C715   1.471       .  S
N37          C38   1.355       .  A
C38          N39   1.361       .  A
C38         C719   1.465       .  S
C40         C712   1.468       .  S
C40          C41   1.395       .  A
C40          C45   1.399       .  A
C41          C42   1.399       .  A
C41          H46   1.085       .  S
C42         C716   1.483       .  S
C42          C43   1.410       .  A
C43          C44   1.408       .  A
C43          H47   1.078       .  S
C44         C728   1.479       .  S
C44          C45   1.398       .  A
C45          H48   1.084       .  S
C49          N50   1.350       .  A
C49          N54   1.356       .  A
C49         C704   1.463       .  S
N50          C51   1.353       .  A
C51          N52   1.354       .  A
C51         C707   1.456       .  S
N52          C53   1.355       .  A
C53          N54   1.358       .  A
C53         C711   1.463       .  S
Zr55         O56   2.441       .  S
Zr55         O58   2.436       .  S
Zr55        O831   2.418       .  S
Zr55       O1609   2.419   1_455  S
Zr55         O64   2.384       .  S
Zr55         O65   2.397       .  S
Zr55         O66   2.398       .  S
Zr55        O837   2.379       .  S
O56         H112   0.991       .  S
O56         H120   0.990       .  S
O57        Zr829   2.438       .  S
O57          C77   1.282       .  A
O58         C853   1.282       .  A
O59         Zr69   2.443   1_554  S
O59          C78   1.287       .  A
O60         Zr68   2.421   1_554  S
O60          C79   1.282       .  A
O61       Zr1603   2.424       .  S
O61          C78   1.281       .  A
O62         Zr70   2.403   1_554  S
O62          C77   1.278       .  A
O63         Zr68   2.391   1_554  S
O63         Zr70   2.380   1_554  S
O63        Zr829   2.383       .  S
O64       Zr1617   2.384   1_454  S
O64        Zr844   2.372       .  S
O64          H99   0.965       .  S
O65         Zr85   2.387   1_554  S
O65        Zr842   2.396       .  S
O65         H102   0.967       .  S
O66         Zr85   2.385   1_554  S
O66       Zr1617   2.392   1_454  S
Zr67        O866   2.441       .  S
Zr67         O86   2.421       .  S
Zr67         O94   2.454       .  S
Zr67        O856   2.436       .  S
Zr67         O75   2.386       .  S
Zr67         O76   2.390       .  S
Zr67        O847   2.397       .  S
Zr67        O848   2.398       .  S
Zr68         O80   2.436       .  S
Zr68        O861   2.439   1_556  S
Zr68         O81   2.418       .  S
Zr68         O74   2.398       .  S
Zr68        O839   2.394   1_546  S
Zr68        O849   2.382   1_545  S
Zr69         O71   2.435       .  S
Zr69         O93   2.438   1_556  S
Zr69         O95   2.422       .  S
Zr69       O1612   2.385   1_556  S
Zr69       O1614   2.384   1_556  S
Zr69       O2395   2.398       .  S
Zr69       O1624   2.399       .  S
Zr70         O96   2.436       .  S
Zr70         O97   2.437       .  S
Zr70         O72   2.435       .  S
Zr70         O73   2.380       .  S
Zr70         O74   2.395       .  S
Zr70        O838   2.387   1_556  S
O71         H108   0.990       .  S
O72         H103   0.990       .  S
O72         H117   0.990   1_556  S
O73        Zr841   2.395       .  S
O73       Zr2391   2.392   1_445  S
O74        Zr841   2.400       .  S
O74         H100   0.968       .  S
O75         Zr85   2.377       .  S
O75        Zr842   2.385   1_556  S
O76         Zr85   2.382       .  S
O76       Zr1617   2.390   1_455  S
O76         H101   0.966   1_455  S
C77         C771   1.464       .  S
C78         C760   1.475       .  S
C79         C748   1.470       .  S
C79         O832   1.284       .  A
O80         H116   0.990       .  S
O81          C83   1.281       .  A
O82        Zr841   2.444       .  S
O82          C83   1.286       .  A
C83         C724   1.473       .  S
O84         Zr85   2.440   1_554  S
O84         H113   0.990       .  S
Zr85         O88   2.438       .  S
Zr85         O89   2.439   1_455  S
Zr85         O90   2.404       .  S
O86          C91   1.280       .  A
O87        Zr842   2.437   1_556  S
O87         H119   0.990   1_556  S
O87         H878   0.990       .  S
O88         H105   0.990       .  S
O89         H109   0.990       .  S
O89         H118   0.990       .  S
O90          C91   1.280       .  A
C91         C708   1.455       .  S
O92        Zr841   2.440       .  S
O92         H111   0.990       .  S
O92         H115   0.990       .  S
O93         H107   0.990   1_554  S
O93         H114   0.990       .  S
O94          C98   1.287   1_455  A
O95        C1646   1.281       .  A
O96         H106   0.990       .  S
O97         H110   0.990       .  S
C98        C2284   1.480       .  S
C98        O1643   1.283       .  A
H104        O861   0.990       .  S
C121        N122   1.365       .  A
C121        N126   1.355       .  A
C121        C696   1.472       .  S
N122        C123   1.364       .  A
C123        N124   1.357       .  A
C123        C700   1.479       .  S
N124        C125   1.353       .  A
C125        N126   1.351       .  A
C125        C691   1.467       .  S
C127        N128   1.357       .  A
C127        N132   1.352       .  A
C127        C683   1.463       .  S
N128        C129   1.357       .  A
C129        N130   1.356   1_545  A
C129        C679   1.468       .  S
N130        C131   1.356       .  A
C131        N132   1.355   1_565  A
C131       C1462   1.462       .  S
C133        N134   1.361       .  A
C133        N138   1.362       .  A
C133        C671   1.474       .  S
N134        C135   1.358       .  A
C135        N136   1.352       .  A
C135        C667   1.471       .  S
N136        C137   1.354       .  A
C137        N138   1.359       .  A
C137        C675   1.465   1_455  S
C139        C680   1.473       .  S
C139        C140   1.404   1_545  A
C139        C144   1.400       .  A
C140        C141   1.400       .  A
C140        H919   1.084       .  S
C141       C3014   1.486   1_455  S
C141        C142   1.407   1_565  A
C142        C143   1.408       .  A
C142       H1694   1.078       .  S
C143        C668   1.487       .  S
C143        C144   1.401       .  A
C144        H147   1.085       .  S
H145        C914   1.084       .  S
H146       C1690   1.084       .  S
Zr148       O149   2.441       .  S
Zr148       O150   2.430       .  S
Zr148       O151   2.422       .  S
Zr148       O154   2.434       .  S
Zr148       O156   2.380       .  S
Zr148       O157   2.381       .  S
Zr148       O158   2.407       .  S
Zr148       O159   2.396       .  S
O149        H205   0.990       .  S
O149        H213   0.990       .  S
O150        C170   1.282       .  A
O151        C172   1.283       .  A
O152       Zr162   2.418       .  S
O152        C171   1.282       .  A
O153       Zr161   2.413       .  S
O153        C172   1.279       .  A
O154        C171   1.285       .  A
O155       Zr163   2.429       .  S
O155        C170   1.284       .  A
O156       Zr161   2.391       .  S
O156       Zr163   2.375       .  S
O157       Zr162   2.384       .  S
O157       Zr163   2.375       .  S
O157        H192   0.966       .  S
O158       Zr161   2.397       .  S
O158       Zr178   2.394       .  S
O158        H195   0.965       .  S
O159       Zr162   2.388       .  S
O159       Zr178   2.390       .  S
Zr160       O185   2.442       .  S
Zr160       O179   2.433       .  S
Zr160       O187   2.435       .  S
Zr160       O175   2.444       .  S
Zr160       O166   2.398       .  S
Zr160       O167   2.408       .  S
Zr160       O168   2.381       .  S
Zr160       O169   2.381       .  S
Zr161       O180   2.438       .  S
Zr161       O173   2.437       .  S
Zr161       O174   2.411       .  S
Zr161       O167   2.399       .  S
Zr161       O168   2.392       .  S
Zr162       O164   2.436       .  S
Zr162       O186   2.434       .  S
Zr162       O188   2.413       .  S
Zr162       O166   2.387       .  S
Zr162       O169   2.387       .  S
Zr163       O189   2.435       .  S
Zr163       O190   2.436       .  S
Zr163       O165   2.436       .  S
Zr163       O166   2.392       .  S
Zr163       O167   2.399       .  S
O164       H1749   0.990       .  S
O165        H196   0.990       .  S
O165        H210   0.990       .  S
O167        H193   0.967       .  S
O168       Zr178   2.380       .  S
O169       Zr178   2.378       .  S
O169        H194   0.966       .  S
C170        C695   1.479       .  S
C171        C676   1.470       .  S
C172        C684   1.464       .  S
O173        H209   0.990       .  S
O174        C176   1.279       .  A
O175        C176   1.285       .  A
C176        C720   1.470       .  S
O177       Zr178   2.440       .  S
O177        H206   0.991       .  S
Zr178       O181   2.438       .  S
Zr178       O182   2.440       .  S
Zr178       O183   2.413       .  S
O179        C184   1.282       .  A
O180        H197   0.990       .  S
O180        H212   0.990       .  S
O181        H198   0.990       .  S
O182        H202   0.990       .  S
O182        H211   0.990       .  S
O183        C184   1.282       .  A
C184        C732   1.472       .  S
O185        H204   0.990       .  S
O185        H208   0.990       .  S
O186        H207   0.990       .  S
O186       H1748   0.990       .  S
O187        C191   1.285       .  A
O188        C191   1.279       .  A
O189        H199   0.990       .  S
O190        H203   0.990       .  S
C191       C2251   1.469       .  S
H200       O1734   0.990       .  S
H201       O1712   0.990       .  S
C214        N215   1.359       .  A
C214        N219   1.354       .  A
C214        C664   1.466       .  S
N215        C216   1.359       .  A
C216        N217   1.356       .  A
C216        C659   1.467       .  S
N217        C218   1.355       .  A
C218        N219   1.356       .  A
C218        C655   1.468       .  S
C220        N221   1.361       .  A
C220        N225   1.349       .  A
C220        C647   1.474       .  S
N221        C222   1.365       .  A
C222        N223   1.365       .  A
C222        C651   1.475       .  S
N223        C224   1.357       .  A
C224        N225   1.343       .  A
C224        C644   1.464       .  S
C226        N227   1.363       .  A
C226        N231   1.364       .  A
C226       C1409   1.473   1_545  S
N227        C228   1.350       .  A
C228       N1777   1.349       .  A
C228        C631   1.473       .  S
N229       C1776   1.349       .  A
N229       C1778   1.351       .  A
C230        N231   1.361       .  A
C230       N1777   1.354       .  A
C230       C2187   1.476       .  S
C232        C656   1.471       .  S
C232        C233   1.402       .  A
C232        C237   1.405       .  A
C233        C234   1.402       .  A
C233        H238   1.084       .  S
C234        C632   1.471       .  S
C234        C235   1.397       .  A
C235        C236   1.400       .  A
C235       H1787   1.084       .  S
C236       C2191   1.477       .  S
C236        C237   1.400       .  A
C237        H240   1.084       .  S
H239       C1783   1.084       .  S
Zr241       O242   2.442       .  S
Zr241       O243   2.457       .  S
Zr241       O244   2.441       .  S
Zr241       O247   2.435       .  S
Zr241       O249   2.385       .  S
Zr241       O250   2.382       .  S
Zr241       O251   2.415       .  S
Zr241       O252   2.405       .  S
O242        H298   0.990       .  S
O242        H306   0.990       .  S
O243        C263   1.286       .  A
O244        C265   1.284       .  A
O245       Zr255   2.424       .  S
O245        C264   1.283       .  A
O246       Zr254   2.432       .  S
O246        C265   1.284       .  A
O247        C264   1.283       .  A
O248       Zr256   2.396       .  S
O248        C263   1.278       .  A
O249       Zr254   2.401       .  S
O249       Zr256   2.383       .  S
O250       Zr255   2.387       .  S
O250       Zr256   2.378       .  S
O250        H285   0.966       .  S
O251       Zr254   2.404       .  S
O251       Zr271   2.389       .  S
O251        H288   0.964       .  S
O252       Zr255   2.388       .  S
O252       Zr271   2.396       .  S
Zr253       O278   2.444       .  S
Zr253       O272   2.434       .  S
Zr253       O280   2.430       .  S
Zr253       O268   2.414       .  S
Zr253       O259   2.394       .  S
Zr253       O260   2.409       .  S
Zr253       O261   2.380       .  S
Zr253       O262   2.383       .  S
Zr254       O273   2.436       .  S
Zr254       O266   2.437       .  S
Zr254       O267   2.445       .  S
Zr254       O260   2.394       .  S
Zr254       O261   2.393       .  S
Zr255       O257   2.435       .  S
Zr255       O279   2.437       .  S
Zr255       O281   2.426       .  S
Zr255       O259   2.389       .  S
Zr255       O262   2.389       .  S
Zr256       O282   2.434       .  S
Zr256       O283   2.436       .  S
Zr256       O258   2.438       .  S
Zr256       O259   2.380       .  S
Zr256       O260   2.378       .  S
O257        H294   0.990       .  S
O258        H303   0.990       .  S
O258       H1063   0.990       .  S
O260        H286   0.964       .  S
O261       Zr271   2.382       .  S
O262       Zr271   2.382       .  S
O262        H287   0.965       .  S
C263        C687   1.469       .  S
C264        C672   1.474       .  S
C265        C699   1.472       .  S
O266        H302   0.990       .  S
O267        C269   1.286       .  A
O268        C269   1.279       .  A
C269        C636   1.466       .  S
O270       Zr271   2.440       .  S
O270        H299   0.990       .  S
Zr271       O274   2.437       .  S
Zr271       O275   2.439       .  S
Zr271       O276   2.410       .  S
O272        C277   1.281       .  A
O273        H290   0.990       .  S
O273        H305   0.990       .  S
O274        H291   0.990       .  S
O275        H295   0.990       .  S
O275        H304   0.990       .  S
O276        C277   1.280       .  A
C277        C660   1.470       .  S
O278        H297   0.990       .  S
O278        H301   0.991       .  S
O279        H293   0.990       .  S
O279        H300   0.990       .  S
O280        C284   1.282       .  A
O281        C284   1.282       .  A
O282        H292   0.990       .  S
O283        H296   0.990       .  S
C284        C648   1.461       .  S
H289       O1032   0.990   1_545  S
C307        N308   1.353       .  A
C307        N312   1.357       .  A
C307        C627   1.456       .  S
N308        C309   1.356       .  A
C309        N310   1.352       .  A
C309        C623   1.460       .  S
N310        C311   1.356       .  A
C311        N312   1.353       .  A
C311        C619   1.463       .  S
C313        N314   1.362       .  A
C313       N1866   1.354       .  A
C313        C612   1.478       .  S
N314       C1863   1.364       .  A
C315        N316   1.357       .  A
C315       N1862   1.361       .  A
C315        C615   1.468       .  S
N316        C317   1.356       .  A
C317        N318   1.353       .  A
C317        C607   1.464       .  S
N318       C1861   1.355       .  A
C319        N320   1.358       .  A
C319        N324   1.362       .  A
C319        C600   1.465       .  S
N320       C1095   1.352   1_545  A
C321        N322   1.347       .  A
C321       N1094   1.352       .  A
C321        C596   1.456       .  S
N322       C1097   1.352       .  A
C323        N324   1.362       .  A
C323       N1096   1.355   1_545  A
C323        C604   1.479       .  S
C325        C620   1.466       .  S
C325        C326   1.404       .  A
C325        C330   1.403       .  A
C326        C327   1.397       .  A
C326        H331   1.084       .  S
C327        C595   1.476       .  S
C327        C328   1.403       .  A
C328        C329   1.398       .  A
C328        H332   1.082       .  S
C329        C608   1.480       .  S
C329        C330   1.397       .  A
C330        H333   1.085       .  S
Zr334      O1109   2.441       .  S
Zr334       O336   2.437       .  S
Zr334       O340   2.431       .  S
Zr334      O1111   2.445   1_545  S
Zr334       O342   2.381       .  S
Zr334       O343   2.390       .  S
Zr334       O345   2.393       .  S
Zr334      O1118   2.409   1_545  S
O335      Zr1108   2.442       .  S
O335        H391   0.990       .  S
O335        H399   0.991       .  S
O336        C356   1.282       .  A
O337      Zr1108   2.450       .  S
O337        C358   1.285       .  A
O338       Zr348   2.429       .  S
O338        C357   1.285       .  A
O339      Zr1121   2.427       .  S
O339        C358   1.282       .  A
O340        C357   1.283       .  A
O341       Zr349   2.413       .  S
O341        C356   1.281       .  A
O342       Zr347   2.402   1_545  S
O342       Zr349   2.384       .  S
O343       Zr348   2.384       .  S
O343       Zr349   2.378       .  S
O343        H378   0.965       .  S
O344       Zr364   2.392       .  S
O344      Zr1108   2.403       .  S
O344      Zr1121   2.395       .  S
O344        H381   0.964       .  S
O345       Zr348   2.382       .  S
O345      Zr1138   2.374   1_445  S
Zr346       O371   2.443       .  S
Zr346       O365   2.432   1_445  S
Zr346       O373   2.426       .  S
Zr346       O361   2.427       .  S
Zr346       O352   2.405       .  S
Zr346       O353   2.405       .  S
Zr346       O354   2.375   1_545  S
Zr346       O355   2.384       .  S
Zr347       O359   2.434       .  S
Zr347      O1140   2.437       .  S
Zr347       O360   2.438       .  S
Zr347      O1113   2.417       .  S
Zr347       O353   2.392   1_565  S
Zr347       O354   2.383       .  S
Zr347      O1118   2.400       .  S
Zr348       O372   2.437       .  S
Zr348      O1898   2.436   1_455  S
Zr348       O374   2.426       .  S
Zr348       O352   2.393       .  S
Zr348       O355   2.394       .  S
Zr349       O375   2.436       .  S
Zr349       O376   2.436       .  S
Zr349       O351   2.438       .  S
Zr349       O352   2.397       .  S
Zr349       O353   2.380       .  S
O350      Zr1896   2.435       .  S
O350        H387   0.990       .  S
O351        H382   0.990       .  S
O351        H396   0.990       .  S
O353        H379   0.965       .  S
O354      Zr1138   2.379   1_455  S
O355      Zr1138   2.379   1_445  S
O355        H380   0.967   1_455  S
C356        C663   1.472       .  S
C357        C640   1.467       .  S
C358        C652   1.476       .  S
O359        H395   0.990   1_565  S
O360        C362   1.286       .  A
O361        C362   1.283   1_545  A
C362        C603   1.468       .  S
O363      Zr1912   2.439       .  S
O363        H392   0.990       .  S
Zr364       O367   2.436   1_455  S
Zr364      O1911   2.437   1_455  S
Zr364      O1916   2.439   1_455  S
Zr364      O1917   2.416   1_455  S
Zr364      O1119   2.389       .  S
Zr364      O1128   2.377       .  S
Zr364      O1129   2.374       .  S
O365       C1144   1.283       .  A
O366      Zr1121   2.436       .  S
O366        H383   0.990       .  S
O366        H398   0.990       .  S
O367       H1932   0.990       .  S
O368      Zr1912   2.439       .  S
O368        H388   0.990       .  S
O368        H397   0.990       .  S
O369      Zr1912   2.413       .  S
O369       C1918   1.281       .  A
C370       C2176   1.462       .  S
C370       O1139   1.279   1_655  A
C370       O1917   1.281       .  A
O371        H390   0.991       .  S
O371        H394   0.990       .  S
O372        H386   0.990       .  S
O372        H393   0.990       .  S
O373        C377   1.280       .  A
O374        C377   1.283       .  A
O375        H385   0.990       .  S
O376        H389   0.990       .  S
C377        C616   1.468       .  S
H384       O1915   0.990       .  S
C400        N401   1.359       .  A
C400        N405   1.359       .  A
C400        C587   1.465       .  S
N401        C402   1.354       .  A
C402       N1177   1.355       .  A
C402       C2131   1.472       .  S
N403        C404   1.359       .  A
N403       C1176   1.352       .  A
C404       N1179   1.359       .  A
C404        C591   1.473       .  S
N405       C1178   1.360       .  A
C406        N407   1.362       .  A
C406        N411   1.354       .  A
C406        C580   1.476       .  S
N407        C408   1.365       .  A
C408        N409   1.359       .  A
C408        C575   1.470       .  S
N409        C410   1.355       .  A
C410        N411   1.346       .  A
C410        C571   1.467       .  S
C412        N413   1.363       .  A
C412        N417   1.362       .  A
C412        C564   1.478       .  S
N413        C414   1.362       .  A
C414        N415   1.357       .  A
C414        C567   1.479       .  S
N415        C416   1.352       .  A
C416        N417   1.359       .  A
C416        C559   1.475       .  S
C418        C584   1.478       .  S
C418        C419   1.403       .  A
C418       C1197   1.401       .  A
C419        C420   1.400       .  A
C419        H424   1.084       .  S
C420        C560   1.488       .  S
C420        C421   1.410       .  A
C421       C1196   1.411       .  A
C421        H425   1.079       .  S
C422        C572   1.483       .  S
C422        C423   1.396       .  A
C422       C1195   1.405       .  A
C423       C1192   1.401       .  A
C423        H426   1.085       .  S
Zr427       O428   2.441       .  S
Zr427       O429   2.428       .  S
Zr427       O430   2.434       .  S
Zr427       O433   2.435       .  S
Zr427       O435   2.379       .  S
Zr427       O436   2.388       .  S
Zr427       O437   2.404       .  S
Zr427       O438   2.401       .  S
O428        H484   0.990       .  S
O428        H492   0.990       .  S
O429        C449   1.282       .  A
O430        C451   1.285       .  A
O431       Zr441   2.430       .  S
O431        C450   1.284       .  A
O432       Zr440   2.431       .  S
O432        C451   1.283       .  A
O433        C450   1.285       .  A
O434       Zr442   2.417       .  S
O434        C449   1.281       .  A
O435       Zr440   2.394       .  S
O435       Zr442   2.375       .  S
O436       Zr441   2.394       .  S
O436       Zr442   2.371       .  S
O436        H471   0.966       .  S
O437       Zr440   2.402       .  S
O437       Zr457   2.385       .  S
O437        H474   0.965       .  S
O438       Zr441   2.395       .  S
O438       Zr457   2.391       .  S
Zr439       O464   2.440       .  S
Zr439       O458   2.432       .  S
Zr439       O466   2.417       .  S
Zr439       O454   2.426       .  S
Zr439       O445   2.399       .  S
Zr439       O446   2.398       .  S
Zr439       O447   2.379       .  S
Zr439       O448   2.380       .  S
Zr440       O459   2.436       .  S
Zr440       O452   2.436       .  S
Zr440       O453   2.438       .  S
Zr440       O446   2.393       .  S
Zr440       O447   2.389       .  S
Zr441       O443   2.435       .  S
Zr441       O465   2.436       .  S
Zr441       O467   2.442       .  S
Zr441       O445   2.394       .  S
Zr441       O448   2.385       .  S
Zr442       O468   2.437       .  S
Zr442       O469   2.435       .  S
Zr442       O444   2.436       .  S
Zr442       O445   2.391       .  S
Zr442       O446   2.396       .  S
O443        H480   0.990       .  S
O444        H475   0.990       .  S
O444        H489   0.990       .  S
O446        H472   0.966       .  S
O447       Zr457   2.379       .  S
O448       Zr457   2.377       .  S
O448        H473   0.964       .  S
C449        C588   1.470       .  S
C450        C568   1.473       .  S
C451        C576   1.475       .  S
O452        H488   0.990       .  S
O453        C455   1.285       .  A
O454        C455   1.283       .  A
C455        C756   1.476       .  S
O456       Zr457   2.435       .  S
O456        H485   0.990       .  S
Zr457       O460   2.435       .  S
Zr457       O461   2.439       .  S
Zr457       O462   2.413       .  S
O458        C463   1.283       .  A
O459        H476   0.990       .  S
O459        H491   0.990       .  S
O460        H477   0.990       .  S
O461        H481   0.990       .  S
O461        H490   0.990       .  S
O462        C463   1.279       .  A
C463        C767   1.461       .  S
O464        H483   0.990       .  S
O464        H487   0.990       .  S
O465        H479   0.990       .  S
O465        H486   0.990       .  S
O466        C470   1.283       .  A
O467        C470   1.285       .  A
O468        H478   0.990       .  S
O469        H482   0.990       .  S
C470        C743   1.483       .  S
Zr493       O494   2.442       .  S
Zr493       O495   2.440       .  S
Zr493       O496   2.420       .  S
Zr493       O499   2.409       .  S
Zr493       O501   2.374       .  S
Zr493       O502   2.383       .  S
Zr493       O503   2.406       .  S
Zr493       O504   2.399       .  S
O494        H550   0.990       .  S
O494        H558   0.990       .  S
O495        C515   1.284       .  A
O496       C2065   1.281       .  A
O497       Zr507   2.428       .  S
O497        C516   1.284       .  A
O498      Zr2054   2.422   1_455  S
O498        C517   1.282   1_455  A
O499        C516   1.279       .  A
O500       Zr508   2.398       .  S
O500        C515   1.276       .  A
O501       Zr506   2.392       .  S
O501       Zr508   2.379       .  S
O502       Zr507   2.388       .  S
O502       Zr508   2.381       .  S
O502        H537   0.967       .  S
O503       Zr506   2.397       .  S
O503       Zr523   2.395       .  S
O503        H540   0.966       .  S
O504       Zr507   2.382       .  S
O504       Zr523   2.385       .  S
Zr505       O530   2.442       .  S
Zr505       O524   2.419       .  S
Zr505       O532   2.426       .  S
Zr505       O520   2.431       .  S
Zr505       O511   2.398       .  S
Zr505       O512   2.396       .  S
Zr505       O513   2.385       .  S
Zr505       O514   2.386       .  S
Zr506       O525   2.436       .  S
Zr506       O518   2.435       .  S
Zr506       O519   2.428       .  S
Zr506      O2046   2.439       .  S
Zr506       O512   2.402       .  S
Zr506       O513   2.389       .  S
Zr507       O509   2.437       .  S
Zr507       O531   2.435       .  S
Zr507       O533   2.420       .  S
Zr507       O511   2.392       .  S
Zr507       O514   2.387       .  S
Zr508       O534   2.435       .  S
Zr508       O535   2.436       .  S
Zr508       O510   2.436       .  S
Zr508       O511   2.389       .  S
Zr508       O512   2.378       .  S
O509        H546   0.990       .  S
O510        H541   0.990       .  S
O510        H555   0.990       .  S
O512        H538   0.966       .  S
O513       Zr523   2.377       .  S
O514       Zr523   2.370       .  S
O514        H539   0.967       .  S
C515        C592   1.461       .  S
C516        C579   1.462       .  S
C517        C563   1.476   1_655  S
C517       O2044   1.287       .  A
O518        H554   0.990       .  S
O519        C521   1.284       .  A
O520        C521   1.283       .  A
C521        C611   1.468       .  S
O522       Zr523   2.435       .  S
O522        H551   0.990       .  S
Zr523       O526   2.435       .  S
Zr523       O527   2.439       .  S
Zr523       O528   2.408       .  S
O524        C529   1.280       .  A
O525       H2090   0.990       .  S
O525       H2105   0.990       .  S
O526        H543   0.990       .  S
O527        H547   0.990       .  S
O527        H556   0.990       .  S
O528        C529   1.281       .  A
C529        C624   1.463       .  S
O530        H549   0.991       .  S
O530        H553   0.990       .  S
O531        H545   0.990       .  S
O531        H552   0.990       .  S
O532        C536   1.282       .  A
O533        C536   1.283       .  A
O534        H544   0.990       .  S
O535        H548   0.990       .  S
C536        C599   1.465       .  S
H542       O2073   0.990       .  S
H557       O2073   0.990       .  S
C559        C560   1.343       .  D
C559        H561   1.084       .  S
C560        H562   1.087       .  S
C563        C564   1.343       .  D
C563        H565   1.087       .  S
C564        H566   1.086       .  S
C567        C568   1.346       .  D
C567        H569   1.086       .  S
C568        H570   1.087       .  S
C571        C572   1.341       .  D
C571        H573   1.085       .  S
C572        H574   1.087       .  S
C575        C576   1.342       .  D
C575        H577   1.087       .  S
C576        H578   1.087       .  S
C579        C580   1.349       .  D
C579        H581   1.086       .  S
C580        H582   1.087       .  S
C583       C1950   1.470       .  S
C583        C584   1.343   1_655  D
C583       H2133   1.086       .  S
C584       H1360   1.087       .  S
H585       C2131   1.086       .  S
H586       C1358   1.087       .  S
C587        C588   1.341       .  D
C587        H589   1.087       .  S
C588        H590   1.087       .  S
C591        C592   1.340       .  D
C591        H593   1.087       .  S
C592        H594   1.087       .  S
C595        C596   1.341       .  D
C595        H597   1.087       .  S
C596        H598   1.087       .  S
C599        C600   1.342       .  D
C599        H601   1.087       .  S
C600        H602   1.086       .  S
C603        C604   1.349   1_565  D
C603       H1379   1.086       .  S
C604        H606   1.087       .  S
H605       C1377   1.087       .  S
C607        C608   1.345       .  D
C607        H609   1.086       .  S
C608        H610   1.087       .  S
C611        C612   1.349       .  D
C611        H613   1.087       .  S
C612        H614   1.087       .  S
C615        C616   1.340       .  D
C615        H617   1.087       .  S
C616        H618   1.087       .  S
C619        C620   1.339       .  D
C619        H621   1.087       .  S
C620        H622   1.088       .  S
C623        C624   1.338       .  D
C623        H625   1.087       .  S
C624        H626   1.087       .  S
C627        C628   1.335       .  D
C627        H629   1.087       .  S
C628       C1918   1.457       .  S
C628        H630   1.087       .  S
C631        C632   1.344       .  D
C631        H633   1.086       .  S
C632        H634   1.088       .  S
C635       C1000   1.469       .  S
C635        C636   1.338       .  D
C635       H1411   1.086       .  S
C636        H638   1.089       .  S
H637       C1409   1.086       .  S
C639       C1778   1.480       .  S
C639        C640   1.350   1_655  D
C639       H2189   1.086       .  S
C640        H642   1.087       .  S
H641       C2187   1.086       .  S
C643       C1784   1.481   1_455  S
C643        C644   1.338       .  D
C643        H645   1.086       .  S
C644        H646   1.087       .  S
C647        C648   1.349       .  D
C647        H649   1.086       .  S
C648        H650   1.087       .  S
C651        C652   1.343       .  D
C651        H653   1.086       .  S
C652        H654   1.088       .  S
C655        C656   1.342       .  D
C655        H657   1.087       .  S
C656        H658   1.087       .  S
C659        C660   1.341       .  D
C659        H661   1.087       .  S
C660        H662   1.087       .  S
C663        C664   1.341       .  D
C663        H665   1.087       .  S
C664        H666   1.087       .  S
C667        C668   1.344       .  D
C667        H669   1.083       .  S
C668        H670   1.087       .  S
C671        C672   1.344       .  D
C671        H673   1.087       .  S
C672        H674   1.087       .  S
C675       C2224   1.342   1_655  D
C675       H2225   1.086       .  S
C676       C2223   1.342       .  D
C676        H678   1.089       .  S
H677       C2223   1.086       .  S
C679        C680   1.342       .  D
C679        H681   1.087   1_545  S
C680        H682   1.087       .  S
C683        C684   1.339       .  D
C683        H685   1.087       .  S
C684        H686   1.087       .  S
C687        C688   1.346       .  D
C687        H689   1.086       .  S
C688        C905   1.468       .  S
C688        H690   1.087       .  S
C691        C692   1.343       .  D
C691        H693   1.085       .  S
C692       C2463   1.477       .  S
C692       H3016   1.087       .  S
H694       C3014   1.087       .  S
C695        C696   1.341       .  D
C695        H697   1.087       .  S
C696        H698   1.087       .  S
C699        C700   1.349       .  D
C699        H701   1.087       .  S
C700        H702   1.086       .  S
C703       C1739   1.464       .  S
C703        C704   1.337       .  D
C703        H705   1.087       .  S
C704        H706   1.087       .  S
C707        C708   1.339       .  D
C707        H709   1.088       .  S
C708        H710   1.087       .  S
C711        C712   1.340       .  D
C711        H713   1.087       .  S
C712        H714   1.087       .  S
C715        C716   1.342       .  D
C715        H717   1.083       .  S
C716        H718   1.087       .  S
C719        C720   1.340       .  D
C719        H721   1.087       .  S
C720        H722   1.088       .  S
C723        C724   1.339       .  D
C723        H725   1.087       .  S
C724        H726   1.087       .  S
C727        C728   1.342       .  D
C727        H729   1.085       .  S
C728        H730   1.087       .  S
C731        C732   1.339   1_565  D
C731        H733   1.087       .  S
C732        H734   1.087       .  S
C735        C736   1.344       .  D
C735       H1511   1.087       .  S
C736       C1646   1.468       .  S
C736        H738   1.087       .  S
H737       C1509   1.086       .  S
C739        C740   1.343       .  D
C739        H741   1.087       .  S
C740        H742   1.085       .  S
C743        C744   1.344       .  D
C743        H745   1.086       .  S
C744        H746   1.087       .  S
C747        C748   1.351       .  D
C747        H749   1.086   1_545  S
C748       H1524   1.087       .  S
H750       C1522   1.086       .  S
C751        C752   1.344       .  D
C751        H753   1.086       .  S
C752        H754   1.087       .  S
C755        C756   1.348       .  D
C755        H757   1.086       .  S
C756        H758   1.087       .  S
C759        C760   1.341       .  D
C759        H761   1.087       .  S
C760        H762   1.087       .  S
C763        C764   1.342       .  D
C763        H765   1.087       .  S
C764        H766   1.087       .  S
C767        C768   1.341       .  D
C767        H769   1.087       .  S
C768        H770   1.088       .  S
C771        C772   1.340       .  D
C771        H773   1.087       .  S
C772        H774   1.087       .  S
C775        N776   1.354       .  A
C775        N780   1.358       .  A
C775       C1542   1.457       .  S
N776        C777   1.356       .  A
C777        N778   1.353       .  A
C777       C1546   1.460       .  S
N778       C2327   1.355       .  A
C779       N2326   1.354       .  A
C779       N2328   1.353       .  A
C779       C1537   1.467       .  S
N780       C2327   1.353       .  A
C781        N782   1.356       .  A
C781        N786   1.361       .  A
C781       C1533   1.469       .  S
N782        C783   1.351       .  A
C783        N784   1.347       .  A
C783       C1525   1.463       .  S
N784        C785   1.356       .  A
C785        N786   1.362       .  A
C785       C1529   1.469       .  S
C787        N792   1.355       .  A
C787       C1521   1.474       .  S
N788        C789   1.367       .  A
C789       C1518   1.476       .  S
N790        C791   1.350       .  A
C791        N792   1.353       .  A
C791       C1514   1.469       .  S
C793       C1538   1.472       .  S
C793        C794   1.401       .  A
C793        C798   1.404       .  A
C794        C795   1.402       .  A
C794        H799   1.084       .  S
C795       C1513   1.472       .  S
C795        C796   1.396       .  A
C796        C797   1.403       .  A
C796        H800   1.084       .  S
C797       C1526   1.472       .  S
C797        C798   1.397       .  A
C798        H801   1.084       .  S
C802        N807   1.361       .  A
C802       C1505   1.468       .  S
N803        C804   1.354       .  A
C804        N805   1.356       .  A
C804       C1501   1.474       .  S
N805        C806   1.362       .  A
C806       C1509   1.480       .  S
C808        N809   1.355       .  A
C808        N813   1.364       .  A
C808       C1497   1.469       .  S
N809        C810   1.354       .  A
C810        N811   1.353       .  A
C810       C1489   1.471       .  S
N811        C812   1.355       .  A
C812        N813   1.363       .  A
C812       C1493   1.468       .  S
C814       C1486   1.482       .  S
C814        C815   1.401       .  A
C814        C819   1.407       .  A
C815        C816   1.402       .  A
C815        H820   1.084       .  S
C816       C1490   1.483       .  S
C816        C817   1.406       .  A
C817        C818   1.404       .  A
C817        H821   1.079       .  S
C818       C1502   1.483       .  S
C818        C819   1.402       .  A
C819        H822   1.084       .  S
C823        N824   1.353       .  A
C823        N828   1.361       .  A
C823       C1478   1.469       .  S
N824        C825   1.354       .  A
C825        N826   1.354       .  A
C825       C1481   1.461       .  S
N826        C827   1.356       .  A
C827        N828   1.360       .  A
C827       C1485   1.472       .  S
Zr829       O830   2.441   1_545  S
Zr829       O832   2.448       .  S
Zr829      O2383   2.424   1_445  S
Zr829       O838   2.386       .  S
Zr829       O839   2.405   1_545  S
Zr829       O840   2.400   1_545  S
O830        H886   0.990   1_565  S
O830        H894   0.991       .  S
O831        C851   1.279       .  A
O833       Zr843   2.434       .  S
O833        C852   1.284       .  A
O834       Zr842   2.433       .  S
O834        C853   1.287       .  A
O835      Zr2377   2.413   1_565  S
O835        C852   1.279       .  A
O836       Zr844   2.407       .  S
O836        C851   1.281       .  A
O837       Zr842   2.390       .  S
O837       Zr844   2.380       .  S
O838      Zr2391   2.397   1_444  S
O838        H873   0.966   1_455  S
O839       Zr859   2.387   1_554  S
O839        H876   0.964       .  S
O840      Zr2391   2.388   1_454  S
O840       Zr859   2.391   1_554  S
Zr841       O860   2.423   1_545  S
Zr841       O868   2.420   1_545  S
Zr841       O849   2.373   1_545  S
Zr841       O850   2.390   1_545  S
Zr842       O854   2.435       .  S
Zr842       O855   2.431   1_554  S
Zr842       O848   2.399   1_554  S
Zr843       O845   2.437   1_554  S
Zr843       O867   2.438       .  S
Zr843       O869   2.408   1_554  S
Zr843      O2386   2.381   1_565  S
Zr843      O2388   2.390       .  S
Zr843      O1621   2.394   1_564  S
Zr843      O2398   2.391   1_554  S
Zr844       O870   2.436       .  S
Zr844       O871   2.436   1_554  S
Zr844       O846   2.436       .  S
Zr844       O847   2.393   1_554  S
Zr844       O848   2.380   1_554  S
O845        H882   0.990   1_556  S
O846        H877   0.990       .  S
O846        H891   0.990       .  S
O847      Zr1617   2.397   1_455  S
O848        H874   0.965       .  S
O849       Zr859   2.364       .  S
O850      Zr2391   2.395   1_455  S
O850       Zr859   2.381       .  S
O850        H875   0.966       .  S
C851       C1545   1.457       .  S
C852       C1534   1.464       .  S
C853       C1522   1.480       .  S
O854        H890   0.990       .  S
O855        C857   1.283       .  A
O856        C857   1.286       .  A
C857       C1498   1.476       .  S
O858       Zr859   2.435   1_554  S
O858        H887   0.990       .  S
Zr859       O862   2.439   1_556  S
Zr859       O863   2.437       .  S
Zr859       O864   2.411       .  S
O860        C865   1.280       .  A
O861        H893   0.990       .  S
O862        H879   0.990   1_554  S
O863        H883   0.990   1_455  S
O863        H892   0.990   1_456  S
O864        C865   1.280       .  A
C865       C1482   1.465       .  S
O866        H885   0.990       .  S
O866        H889   0.990       .  S
O867        H881   0.990       .  S
O867        H888   0.989   1_565  S
O868        C872   1.282   1_455  A
O869       C2420   1.280       .  A
O870        H880   0.990       .  S
O871        H884   0.990       .  S
C872       C3058   1.470       .  S
C872       O2417   1.287       .  A
C895        N896   1.364       .  A
C895        N900   1.359       .  A
C895       C1470   1.468       .  S
N896        C897   1.361       .  A
C897        N898   1.354       .  A
C897       C1474   1.478       .  S
N898        C899   1.351       .  A
C899        N900   1.353       .  A
C899       C1465   1.472       .  S
C901        N902   1.352       .  A
C901        N906   1.354       .  A
C901       C1457   1.464       .  S
N902        C903   1.354       .  A
C903        N904   1.358       .  A
C903       C1453   1.473       .  S
N904        C905   1.361       .  A
C905        N906   1.358       .  A
C907        N908   1.355       .  A
C907        N912   1.363       .  A
C907       C1445   1.467       .  S
N908        C909   1.355       .  A
C909        N910   1.352       .  A
C909       C1441   1.469       .  S
N910        C911   1.355       .  A
C911        N912   1.361       .  A
C911       C1449   1.464       .  S
C913       C1454   1.472       .  S
C913        C914   1.402       .  A
C913        C918   1.400       .  A
C914        C915   1.399       .  A
C915       C2240   1.475       .  S
C915        C916   1.403       .  A
C916        C917   1.404       .  A
C916       H2468   1.080       .  S
C917       C1442   1.480       .  S
C917        C918   1.399       .  A
C918        H921   1.085       .  S
H920       C2464   1.083       .  S
Zr922       O923   2.440       .  S
Zr922       O924   2.430       .  S
Zr922       O925   2.427       .  S
Zr922       O928   2.431       .  S
Zr922       O930   2.375       .  S
Zr922       O931   2.380       .  S
Zr922       O932   2.406       .  S
Zr922       O933   2.398       .  S
O923        H979   0.990       .  S
O923        H987   0.990       .  S
O924        C944   1.282       .  A
O925        C946   1.283       .  A
O926       Zr936   2.418       .  S
O926        C945   1.281       .  A
O927       Zr935   2.407       .  S
O927        C946   1.278       .  A
O928        C945   1.285       .  A
O929       Zr937   2.429       .  S
O929        C944   1.284       .  A
O930       Zr935   2.392       .  S
O930       Zr937   2.373       .  S
O931       Zr936   2.385       .  S
O931       Zr937   2.372       .  S
O931        H966   0.966       .  S
O932       Zr935   2.397       .  S
O932       Zr952   2.392       .  S
O932        H969   0.966       .  S
O933       Zr936   2.388       .  S
O933       Zr952   2.393       .  S
Zr934       O959   2.442       .  S
Zr934       O953   2.437       .  S
Zr934       O961   2.427       .  S
Zr934       O949   2.445       .  S
Zr934       O940   2.408       .  S
Zr934       O941   2.401       .  S
Zr934       O942   2.379       .  S
Zr934       O943   2.381       .  S
Zr935       O954   2.436       .  S
Zr935       O947   2.434       .  S
Zr935       O948   2.417       .  S
Zr935       O941   2.393       .  S
Zr935       O942   2.388       .  S
Zr936       O938   2.435       .  S
Zr936       O960   2.436       .  S
Zr936       O962   2.408       .  S
Zr936       O940   2.398       .  S
Zr936       O943   2.389       .  S
Zr937       O963   2.436       .  S
Zr937       O964   2.434       .  S
Zr937       O939   2.438       .  S
Zr937       O940   2.401       .  S
Zr937       O941   2.392       .  S
O938       H2523   0.990       .  S
O939        H970   0.990       .  S
O939        H984   0.990       .  S
O941        H967   0.965       .  S
O942       Zr952   2.382       .  S
O943       Zr952   2.370       .  S
O943        H968   0.967       .  S
C944       C1469   1.474       .  S
C945       C1450   1.473       .  S
C946       C1458   1.458       .  S
O947        H983   0.990       .  S
O948        C950   1.281       .  A
O949        C950   1.287       .  A
C950       C1494   1.477       .  S
O951       Zr952   2.439       .  S
O951        H980   0.990       .  S
Zr952       O955   2.436       .  S
Zr952       O956   2.440       .  S
Zr952       O957   2.420       .  S
O953        C958   1.283       .  A
O954        H971   0.990       .  S
O954        H986   0.990       .  S
O955        H972   0.990       .  S
O956        H976   0.990       .  S
O956        H985   0.990       .  S
O957        C958   1.283       .  A
C958       C1506   1.477       .  S
O959        H978   0.991       .  S
O959        H982   0.990       .  S
O960       H2522   0.990       .  S
O960        H981   0.990       .  S
O961        C965   1.283       .  A
O962        C965   1.278       .  A
O963        H973   0.990       .  S
O964        H977   0.990       .  S
C965       C3025   1.461       .  S
H974       O2508   0.990       .  S
H975       O2486   0.990       .  S
C988        N989   1.355       .  A
C988        N993   1.351       .  A
C988       C1438   1.462       .  S
N989        C990   1.358       .  A
C990        N991   1.358       .  A
C990       C1433   1.466       .  S
N991        C992   1.357       .  A
C992        N993   1.355       .  A
C992       C1429   1.466       .  S
C994        N995   1.361       .  A
C994        N999   1.354       .  A
C994       C1421   1.471       .  S
N995        C996   1.362       .  A
C996        N997   1.360       .  A
C996       C1425   1.473       .  S
N997        C998   1.353       .  A
C998        N999   1.348       .  A
C998       C1418   1.462       .  S
C1000      N1001   1.364       .  A
C1000      N1005   1.361       .  A
N1001      C1002   1.353       .  A
C1002      N2551   1.349       .  A
C1002      C1405   1.475       .  S
N1003      C2550   1.347       .  A
N1003      C2552   1.352       .  A
C1004      N2551   1.352       .  A
C1004      N1005   1.358       .  A
C1004      C2961   1.473       .  S
C1006      C1430   1.471       .  S
C1006      C1007   1.404       .  A
C1006      C1011   1.406       .  A
C1007      C1008   1.400       .  A
C1007      H1012   1.084       .  S
C1008      C1406   1.471       .  S
C1008      C1009   1.397       .  A
C1009      C1010   1.401       .  A
C1009      H2561   1.084       .  S
C1010      C2965   1.478       .  S
C1010      C1011   1.398       .  A
C1011      H1014   1.084       .  S
H1013      C2557   1.084       .  S
Zr1015     O1016   2.441       .  S
Zr1015     O1017   2.425       .  S
Zr1015     O1018   2.437       .  S
Zr1015     O1021   2.436       .  S
Zr1015     O1023   2.386       .  S
Zr1015     O1024   2.379       .  S
Zr1015     O1025   2.407       .  S
Zr1015     O1026   2.403       .  S
O1016      H1072   0.991       .  S
O1016      H1080   0.990       .  S
O1017      C1037   1.280       .  A
O1018      C1039   1.283       .  A
O1019     Zr1029   2.420       .  S
O1019      C1038   1.281       .  A
O1020     Zr1028   2.424       .  S
O1020      C1039   1.282       .  A
O1021      C1038   1.286       .  A
O1022     Zr1030   2.402       .  S
O1022      C1037   1.278       .  A
O1023     Zr1028   2.399       .  S
O1023     Zr1030   2.382       .  S
O1024     Zr1029   2.386       .  S
O1024     Zr1030   2.372       .  S
O1024      H1059   0.966       .  S
O1025     Zr1028   2.403       .  S
O1025     Zr1045   2.380       .  S
O1025      H1062   0.965       .  S
O1026     Zr1029   2.400       .  S
O1026     Zr1045   2.395       .  S
Zr1027     O1052   2.443       .  S
Zr1027     O1046   2.431       .  S
Zr1027     O1054   2.427       .  S
Zr1027     O1042   2.414       .  S
Zr1027     O1033   2.393       .  S
Zr1027     O1034   2.408       .  S
Zr1027     O1035   2.378       .  S
Zr1027     O1036   2.385       .  S
Zr1028     O1047   2.437       .  S
Zr1028     O1040   2.438       .  S
Zr1028     O1041   2.441       .  S
Zr1028     O1034   2.396       .  S
Zr1028     O1035   2.389       .  S
Zr1029     O1031   2.434       .  S
Zr1029     O1053   2.438       .  S
Zr1029     O1055   2.422       .  S
Zr1029     O1033   2.391       .  S
Zr1029     O1036   2.394       .  S
Zr1030     O1056   2.438       .  S
Zr1030     O1057   2.435       .  S
Zr1030     O1032   2.436       .  S
Zr1030     O1033   2.387       .  S
Zr1030     O1034   2.388       .  S
O1031      H1068   0.990       .  S
O1032      H1077   0.990       .  S
O1034      H1060   0.965       .  S
O1035     Zr1045   2.380       .  S
O1036     Zr1045   2.382       .  S
O1036      H1061   0.966       .  S
C1037      C1461   1.460       .  S
C1038      C1446   1.475       .  S
C1039      C1473   1.467       .  S
O1040      H1076   0.990       .  S
O1041      C1043   1.285       .  A
O1042      C1043   1.279       .  A
C1043      C1410   1.467       .  S
O1044     Zr1045   2.437       .  S
O1044      H1073   0.990       .  S
Zr1045     O1048   2.435       .  S
Zr1045     O1049   2.440       .  S
Zr1045     O1050   2.408       .  S
O1046      C1051   1.280       .  A
O1047      H1064   0.990       .  S
O1047      H1079   0.990       .  S
O1048      H1065   0.990       .  S
O1049      H1069   0.990       .  S
O1049      H1078   0.990       .  S
O1050      C1051   1.279       .  A
C1051      C1434   1.465       .  S
O1052      H1071   0.990       .  S
O1052      H1075   0.991       .  S
O1053      H1067   0.990       .  S
O1053      H1074   0.990       .  S
O1054      C1058   1.281       .  A
O1055      C1058   1.281       .  A
O1056      H1066   0.990       .  S
O1057      H1070   0.990       .  S
C1058      C1422   1.465       .  S
C1081      N1082   1.357       .  A
C1081      N1086   1.354       .  A
C1081      C1401   1.467       .  S
N1082      C1083   1.357       .  A
C1083      N1084   1.358       .  A
C1083      C1397   1.471       .  S
N1084      C1085   1.359       .  A
C1085      N1086   1.356       .  A
C1085      C1393   1.467       .  S
C1087      N1088   1.362       .  A
C1087      N2640   1.354       .  A
C1087      C1386   1.479       .  S
N1088      C2637   1.365       .  A
C1089      N2636   1.366       .  A
C1089      N1090   1.358       .  A
C1089      C1389   1.467       .  S
N1090      C1091   1.353       .  A
C1091      N1092   1.351       .  A
C1091      C1381   1.466       .  S
N1092      C2635   1.356       .  A
C1093      N1094   1.359       .  A
C1093      N1098   1.362       .  A
C1093      C1374   1.466       .  S
C1095      N1096   1.349       .  A
C1095      C1370   1.459       .  S
C1097      N1098   1.360       .  A
C1097      C1378   1.474       .  S
C1099      C1394   1.473       .  S
C1099      C1100   1.405       .  A
C1099      C1104   1.406       .  A
C1100      C1101   1.396       .  A
C1100      H1105   1.084       .  S
C1101      C1369   1.480       .  S
C1101      C1102   1.401       .  A
C1102      C1103   1.402       .  A
C1102      H1106   1.081       .  S
C1103      C1382   1.487       .  S
C1103      C1104   1.404       .  A
C1104      H1107   1.084       .  S
Zr1108     O1110   2.428       .  S
Zr1108     O1114   2.412       .  S
Zr1108     O1116   2.378       .  S
Zr1108     O1117   2.392       .  S
Zr1108     O1119   2.406       .  S
O1109      H1165   0.990       .  S
O1109      H1173   0.991   1_545  S
O1110      C1130   1.280       .  A
O1111      C1132   1.284       .  A
O1112     Zr1122   2.419       .  S
O1112      C1131   1.282       .  A
O1113      C1132   1.281       .  A
O1114      C1131   1.280       .  A
O1115     Zr1123   2.407       .  S
O1115      C1130   1.280       .  A
O1116     Zr1121   2.399       .  S
O1116     Zr1123   2.385       .  S
O1117     Zr1122   2.392       .  S
O1117     Zr1123   2.370       .  S
O1117      H1152   0.967       .  S
O1118     Zr1138   2.395   1_455  S
O1118      H1155   0.965       .  S
O1119     Zr1122   2.394       .  S
Zr1120     O1145   2.442       .  S
Zr1120     O1139   2.415       .  S
Zr1120     O1147   2.421       .  S
Zr1120     O1135   2.421       .  S
Zr1120     O1126   2.403       .  S
Zr1120     O1127   2.401       .  S
Zr1120     O1128   2.381       .  S
Zr1120     O1129   2.381       .  S
Zr1121     O1133   2.435       .  S
Zr1121     O1134   2.429       .  S
Zr1121     O1127   2.397       .  S
Zr1121     O1128   2.386       .  S
Zr1122     O2672   2.436   1_455  S
Zr1122     O1146   2.437       .  S
Zr1122     O1148   2.436       .  S
Zr1122     O1126   2.388       .  S
Zr1122     O1129   2.384       .  S
Zr1123     O1149   2.434       .  S
Zr1123     O1150   2.435       .  S
Zr1123     O1125   2.437       .  S
Zr1123     O1126   2.399       .  S
Zr1123     O1127   2.376       .  S
O1124     Zr2670   2.434       .  S
O1124      H1161   0.990       .  S
O1125      H1156   0.990       .  S
O1125      H1170   0.990       .  S
O1127      H1153   0.965       .  S
O1129      H1154   0.967   1_455  S
C1130      C1437   1.467       .  S
C1131      C1414   1.458       .  S
C1132      C1426   1.469       .  S
O1133      H1169   0.990       .  S
O1134      C1136   1.285       .  A
O1135      C1136   1.283       .  A
C1136      C1377   1.463       .  S
O1137     Zr2686   2.436       .  S
O1137      H1166   0.990       .  S
Zr1138     O2685   2.438       .  S
Zr1138     O1141   2.438       .  S
Zr1138     O2690   2.439       .  S
Zr1138     O2691   2.405       .  S
O1140      H1157   0.990       .  S
O1140      H1172   0.990       .  S
O1141      H2706   0.990       .  S
O1142     Zr2686   2.439       .  S
O1142      H1162   0.990       .  S
O1142      H1171   0.989       .  S
O1143     Zr2686   2.419       .  S
O1143      C2692   1.282       .  A
C1144      C2950   1.458       .  S
C1144      O2691   1.277       .  A
O1145      H1164   0.991       .  S
O1145      H1168   0.990       .  S
O1146      H1160   0.990       .  S
O1146      H1167   0.990       .  S
O1147      C1151   1.280       .  A
O1148      C1151   1.286       .  A
O1149      H1159   0.990       .  S
O1150      H1163   0.990       .  S
C1151      C1390   1.474       .  S
H1158      O2689   0.989       .  S
C1174      N1175   1.356       .  A
C1174      N1179   1.360       .  A
C1174      C1361   1.465   1_545  S
N1175      C1176   1.355       .  A
C1176      C2905   1.469       .  S
N1177      C1178   1.353       .  A
C1178      C1365   1.465       .  S
C1180      N1181   1.361       .  A
C1180      N1185   1.356       .  A
C1180      C1354   1.480       .  S
N1181      C1182   1.364       .  A
C1182      N1183   1.363       .  A
C1182      C1349   1.477       .  S
N1183      C1184   1.359       .  A
C1184      N1185   1.349       .  A
C1184      C1345   1.476       .  S
C1186      N1187   1.363       .  A
C1186      N1191   1.363       .  A
C1186      C1338   1.466       .  S
N1187      C1188   1.359       .  A
C1188      N1189   1.352       .  A
C1188      C1341   1.474       .  S
N1189      C1190   1.346       .  A
C1190      N1191   1.357       .  A
C1190      C1333   1.467       .  S
C1192      C1358   1.473       .  S
C1192      C1193   1.405   1_545  A
C1193      C1194   1.401       .  A
C1193      H1198   1.083       .  S
C1194      C1334   1.486       .  S
C1194      C1195   1.409   1_565  A
C1195      H1199   1.079       .  S
C1196      C1346   1.489       .  S
C1196      C1197   1.402       .  A
C1197      H1200   1.084       .  S
Zr1201     O1202   2.443       .  S
Zr1201     O1203   2.447       .  S
Zr1201     O1204   2.438       .  S
Zr1201     O1207   2.427       .  S
Zr1201     O1209   2.383       .  S
Zr1201     O1210   2.390       .  S
Zr1201     O1211   2.409       .  S
Zr1201     O1212   2.400       .  S
O1202      H1258   0.990       .  S
O1202      H1266   0.991       .  S
O1203      C1223   1.284       .  A
O1204      C1225   1.284       .  A
O1205     Zr1215   2.416       .  S
O1205      C1224   1.281       .  A
O1206     Zr1214   2.446       .  S
O1206      C1225   1.284       .  A
O1207      C1224   1.282       .  A
O1208     Zr1216   2.400       .  S
O1208      C1223   1.279       .  A
O1209     Zr1214   2.393       .  S
O1209     Zr1216   2.387       .  S
O1210     Zr1215   2.397       .  S
O1210     Zr1216   2.379       .  S
O1210      H1245   0.966       .  S
O1211     Zr1214   2.395       .  S
O1211     Zr1231   2.381       .  S
O1211      H1248   0.964       .  S
O1212     Zr1215   2.391       .  S
O1212     Zr1231   2.387       .  S
Zr1213     O1238   2.441       .  S
Zr1213     O1232   2.432       .  S
Zr1213     O1240   2.436       .  S
Zr1213     O1228   2.417       .  S
Zr1213     O1219   2.393       .  S
Zr1213     O1220   2.405       .  S
Zr1213     O1221   2.383       .  S
Zr1213     O1222   2.380       .  S
Zr1214     O1233   2.438       .  S
Zr1214     O1226   2.436       .  S
Zr1214     O1227   2.421       .  S
Zr1214     O1220   2.401       .  S
Zr1214     O1221   2.394       .  S
Zr1215     O1217   2.436       .  S
Zr1215     O1239   2.436       .  S
Zr1215     O1241   2.439       .  S
Zr1215     O1219   2.389       .  S
Zr1215     O1222   2.385       .  S
Zr1216     O1242   2.436       .  S
Zr1216     O1243   2.437       .  S
Zr1216     O1218   2.436       .  S
Zr1216     O1219   2.387       .  S
Zr1216     O1220   2.388       .  S
O1217      H1254   0.990       .  S
O1218      H1249   0.990       .  S
O1218      H1263   0.990       .  S
O1220      H1246   0.966       .  S
O1221     Zr1231   2.373       .  S
O1222     Zr1231   2.381       .  S
O1222      H1247   0.966       .  S
C1223      C1362   1.473       .  S
C1224      C1342   1.462       .  S
C1225      C1350   1.478       .  S
O1226      H1262   0.990       .  S
O1227      C1229   1.282       .  A
O1228      C1229   1.282       .  A
C1229      C1530   1.460       .  S
O1230     Zr1231   2.438       .  S
O1230      H1259   0.990       .  S
Zr1231     O1234   2.438       .  S
Zr1231     O1235   2.437       .  S
Zr1231     O1236   2.402       .  S
O1232      C1237   1.282       .  A
O1233      H1250   0.990       .  S
O1233      H1265   0.990       .  S
O1234      H1251   0.990       .  S
O1235      H1255   0.990       .  S
O1235      H1264   0.990       .  S
O1236      C1237   1.279       .  A
C1237      C1541   1.462       .  S
O1238      H1257   0.990       .  S
O1238      H1261   0.990       .  S
O1239      H1253   0.990       .  S
O1239      H1260   0.990       .  S
O1240      C1244   1.285       .  A
O1241      C1244   1.284       .  A
O1242      H1252   0.990   1_565  S
O1243      H1256   0.990       .  S
C1244      C1517   1.484       .  S
Zr1267     O1268   2.440       .  S
Zr1267     O1269   2.440       .  S
Zr1267     O1270   2.444       .  S
Zr1267     O1273   2.439       .  S
Zr1267     O1275   2.387       .  S
Zr1267     O1276   2.380       .  S
Zr1267     O1277   2.411       .  S
Zr1267     O1278   2.401       .  S
O1268      H1324   0.990       .  S
O1268      H1332   0.990       .  S
O1269      C1289   1.283       .  A
O1270      C2839   1.285       .  A
O1271     Zr1281   2.411       .  S
O1271      C1290   1.281       .  A
O1272     Zr2828   2.426   1_455  S
O1272      C1291   1.282       .  A
O1273      C1290   1.285       .  A
O1274     Zr1282   2.410       .  S
O1274      C1289   1.281       .  A
O1275     Zr1280   2.403       .  S
O1275     Zr1282   2.381       .  S
O1276     Zr1281   2.381       .  S
O1276     Zr1282   2.372       .  S
O1276      H1311   0.966       .  S
O1277     Zr1280   2.403       .  S
O1277     Zr1297   2.398       .  S
O1277      H1314   0.967       .  S
O1278     Zr1281   2.386       .  S
O1278     Zr1297   2.387       .  S
Zr1279     O1304   2.444       .  S
Zr1279     O1298   2.443       .  S
Zr1279     O1306   2.438       .  S
Zr1279     O1294   2.434       .  S
Zr1279     O1285   2.396       .  S
Zr1279     O1286   2.415       .  S
Zr1279     O1287   2.382       .  S
Zr1279     O1288   2.384       .  S
Zr1280     O1299   2.436       .  S
Zr1280     O1292   2.435       .  S
Zr1280     O2820   2.433       .  S
Zr1280     O1293   2.442       .  S
Zr1280     O1286   2.400       .  S
Zr1280     O1287   2.392       .  S
Zr1281     O1283   2.436       .  S
Zr1281     O1305   2.436       .  S
Zr1281     O1307   2.419       .  S
Zr1281     O1285   2.386       .  S
Zr1281     O1288   2.385       .  S
Zr1282     O1308   2.436       .  S
Zr1282     O1309   2.436       .  S
Zr1282     O1284   2.437       .  S
Zr1282     O1285   2.386       .  S
Zr1282     O1286   2.388       .  S
O1283      H1320   0.990       .  S
O1284      H1315   0.990       .  S
O1284      H1329   0.990       .  S
O1286      H1312   0.966       .  S
O1287     Zr1297   2.385       .  S
O1288     Zr1297   2.382       .  S
O1288      H1313   0.965       .  S
C1289      C1366   1.475       .  S
C1290      C1353   1.467       .  S
C1291      C1337   1.473       .  S
C1291      O2818   1.283   1_455  A
O1292      H1328   0.990       .  S
O1293      C1295   1.286       .  A
O1294      C1295   1.282       .  A
C1295      C1385   1.474       .  S
O1296     Zr1297   2.439       .  S
O1296      H1325   0.990       .  S
Zr1297     O1300   2.436       .  S
Zr1297     O1301   2.440       .  S
Zr1297     O1302   2.410       .  S
O1298      C1303   1.283       .  A
O1299      H2864   0.990       .  S
O1299      H2879   0.990       .  S
O1300      H1317   0.990       .  S
O1301      H1321   0.990       .  S
O1301      H1330   0.990       .  S
O1302      C1303   1.280       .  A
C1303      C1398   1.471       .  S
O1304      H1323   0.991       .  S
O1304      H1327   0.990       .  S
O1305      H1319   0.990       .  S
O1305      H1326   0.990       .  S
O1306      C1310   1.284       .  A
O1307      C1310   1.282       .  A
O1308      H1318   0.990       .  S
O1309      H1322   0.990       .  S
C1310      C1373   1.467       .  S
H1316      O2847   0.990       .  S
H1331      O2847   0.990       .  S
C1333      C1334   1.341       .  D
C1333      H1335   1.085       .  S
C1334      H1336   1.087       .  S
C1337      C1338   1.342       .  D
C1337      H1339   1.087       .  S
C1338      H1340   1.086       .  S
C1341      C1342   1.346       .  D
C1341      H1343   1.086       .  S
C1342      H1344   1.087       .  S
C1345      C1346   1.343       .  D
C1345      H1347   1.085       .  S
C1346      H1348   1.087       .  S
C1349      C1350   1.347       .  D
C1349      H1351   1.088       .  S
C1350      H1352   1.086       .  S
C1353      C1354   1.346       .  D
C1353      H1355   1.087       .  S
C1354      H1356   1.086       .  S
C1357      C2724   1.473   1_565  S
C1357      C1358   1.345   1_665  D
C1357      H2907   1.086       .  S
H1359      C2905   1.086       .  S
C1361      C1362   1.343       .  D
C1361      H1363   1.087       .  S
C1362      H1364   1.086       .  S
C1365      C1366   1.342       .  D
C1365      H1367   1.087       .  S
C1366      H1368   1.087       .  S
C1369      C1370   1.343       .  D
C1369      H1371   1.087       .  S
C1370      H1372   1.085       .  S
C1373      C1374   1.341       .  D
C1373      H1375   1.087       .  S
C1374      H1376   1.086       .  S
C1377      C1378   1.349       .  D
C1378      H1380   1.087       .  S
C1381      C1382   1.348       .  D
C1381      H1383   1.085       .  S
C1382      H1384   1.087       .  S
C1385      C1386   1.351       .  D
C1385      H1387   1.087       .  S
C1386      H1388   1.086       .  S
C1389      C1390   1.339       .  D
C1389      H1391   1.087       .  S
C1390      H1392   1.088       .  S
C1393      C1394   1.341       .  D
C1393      H1395   1.087       .  S
C1394      H1396   1.087       .  S
C1397      C1398   1.343       .  D
C1397      H1399   1.087       .  S
C1398      H1400   1.087       .  S
C1401      C1402   1.341       .  D
C1401      H1403   1.087       .  S
C1402      C2692   1.467       .  S
C1402      H1404   1.087       .  S
C1405      C1406   1.346       .  D
C1405      H1407   1.086       .  S
C1406      H1408   1.088       .  S
C1409      C1410   1.341       .  D
C1410      H1412   1.088       .  S
C1413      C2552   1.471       .  S
C1413      C1414   1.346   1_655  D
C1413      H2963   1.087       .  S
C1414      H1416   1.087       .  S
H1415      C2961   1.087       .  S
C1417      C2558   1.479       .  S
C1417      C1418   1.343   1_655  D
C1417      H1419   1.087       .  S
C1418      H1420   1.086       .  S
C1421      C1422   1.347       .  D
C1421      H1423   1.087       .  S
C1422      H1424   1.087       .  S
C1425      C1426   1.343       .  D
C1425      H1427   1.086       .  S
C1426      H1428   1.087       .  S
C1429      C1430   1.343       .  D
C1429      H1431   1.086       .  S
C1430      H1432   1.087       .  S
C1433      C1434   1.342       .  D
C1433      H1435   1.087       .  S
C1434      H1436   1.087       .  S
C1437      C1438   1.340       .  D
C1437      H1439   1.087       .  S
C1438      H1440   1.087       .  S
C1441      C1442   1.343       .  D
C1441      H1443   1.084       .  S
C1442      H1444   1.087       .  S
C1445      C1446   1.339       .  D
C1445      H1447   1.087       .  S
C1446      H1448   1.087       .  S
C1449      C2998   1.341       .  D
C1449      H2999   1.086   1_455  S
C1450      C2997   1.341       .  D
C1450      H1452   1.089       .  S
H1451      C2997   1.086       .  S
C1453      C1454   1.345       .  D
C1453      H1455   1.086       .  S
C1454      H1456   1.087       .  S
C1457      C1458   1.340       .  D
C1457      H1459   1.087       .  S
C1458      H1460   1.087       .  S
C1461      C1462   1.340       .  D
C1461      H1463   1.087       .  S
C1462      H1464   1.087       .  S
C1465      C1466   1.343       .  D
C1465      H1467   1.087       .  S
C1466      C1689   1.469       .  S
C1466      H2242   1.087       .  S
H1468      C2240   1.087       .  S
C1469      C1470   1.341       .  D
C1469      H1471   1.087       .  S
C1470      H1472   1.087       .  S
C1473      C1474   1.349       .  D
C1473      H1475   1.087       .  S
C1474      H1476   1.086       .  S
C1477      C2513   1.467       .  S
C1477      C1478   1.337       .  D
C1477      H1479   1.087       .  S
C1478      H1480   1.087       .  S
C1481      C1482   1.341       .  D
C1481      H1483   1.087       .  S
C1482      H1484   1.087       .  S
C1485      C1486   1.343       .  D
C1485      H1487   1.086       .  S
C1486      H1488   1.087       .  S
C1489      C1490   1.346       .  D
C1489      H1491   1.084       .  S
C1490      H1492   1.087       .  S
C1493      C1494   1.341       .  D
C1493      H1495   1.086       .  S
C1494      H1496   1.088       .  S
C1497      C1498   1.341       .  D
C1497      H1499   1.087       .  S
C1498      H1500   1.087       .  S
C1501      C1502   1.347       .  D
C1501      H1503   1.085       .  S
C1502      H1504   1.087       .  S
C1505      C1506   1.342       .  D
C1505      H1507   1.087       .  S
C1506      H1508   1.087       .  S
C1509      C1510   1.343       .  D
C1510      C2420   1.473       .  S
C1510      H1512   1.087       .  S
C1513      C1514   1.341       .  D
C1513      H1515   1.087       .  S
C1514      H1516   1.087       .  S
C1517      C1518   1.344       .  D
C1517      H1519   1.087       .  S
C1518      H1520   1.087       .  S
C1521      C1522   1.341       .  D
C1521      H1523   1.087       .  S
C1525      C1526   1.341       .  D
C1525      H1527   1.086       .  S
C1526      H1528   1.087       .  S
C1529      C1530   1.345       .  D
C1529      H1531   1.087       .  S
C1530      H1532   1.087       .  S
C1533      C1534   1.340       .  D
C1533      H1535   1.086       .  S
C1534      H1536   1.088       .  S
C1537      C1538   1.342       .  D
C1537      H1539   1.086       .  S
C1538      H1540   1.087       .  S
C1541      C1542   1.339       .  D
C1541      H1543   1.087       .  S
C1542      H1544   1.087       .  S
C1545      C1546   1.337       .  D
C1545      H1547   1.086       .  S
C1546      H1548   1.089       .  S
C1549      N1550   1.355       .  A
C1549      N1554   1.353       .  A
C1549      C2316   1.457       .  S
N1550      C1551   1.358       .  A
C1551      N1552   1.359       .  A
C1551      C2320   1.462       .  S
C1553      C2311   1.473       .  S
C1555      N1556   1.353       .  A
C1555      N1560   1.359       .  A
C1555      C2307   1.459       .  S
N1556      C1557   1.354       .  A
C1557      N1558   1.353       .  A
C1557      C2299   1.473       .  S
N1558      C1559   1.361       .  A
C1559      N1560   1.360       .  A
C1559      C2303   1.475       .  S
C1561      N2336   1.361   1_545  A
C1561      N1566   1.356       .  A
C1561      C2295   1.477       .  S
N1562      C2335   1.361       .  A
N1562      C1563   1.364       .  A
C1563      N2338   1.358       .  A
C1563      C2292   1.472       .  S
N1564      C2337   1.358       .  A
N1564      C1565   1.356       .  A
C1565      N1566   1.351       .  A
C1565      C2288   1.469       .  S
C1567      C2312   1.483       .  S
C1567      C1568   1.404       .  A
C1567      C1572   1.406       .  A
C1568      C1569   1.400       .  A
C1568      H1573   1.084       .  S
C1569      C2287   1.482       .  S
C1569      C1570   1.405       .  A
C1570      C1571   1.403       .  A
C1570      H1574   1.080       .  S
C1571      C2300   1.482       .  S
C1571      C1572   1.400       .  A
C1572      H1575   1.082       .  S
C1576      N2351   1.361       .  A
C1576      N1581   1.366       .  A
C1576      C2279   1.478   1_565  S
N1577      C2350   1.359       .  A
N1577      C1578   1.356       .  A
C1578      N1579   1.354       .  A
C1578      C2275   1.475       .  S
N1579      C1580   1.359       .  A
C1580      N2355   1.364       .  A
C1580      C2283   1.489       .  S
N1581      C2354   1.363       .  A
C1582      N1583   1.358       .  A
C1582      N1587   1.363       .  A
C1582      C2271   1.471       .  S
N1583      C1584   1.357       .  A
C1584      N1585   1.352       .  A
C1584      C2263   1.472       .  S
N1585      C1586   1.354       .  A
C1586      N1587   1.362       .  A
C1586      C2267   1.467       .  S
C1588      C2260   1.479       .  S
C1588      C1589   1.399       .  A
C1588      C1593   1.407       .  A
C1589      C1590   1.400       .  A
C1589      H1594   1.085       .  S
C1590      C2264   1.486       .  S
C1590      C1591   1.407       .  A
C1591      C1592   1.407       .  A
C1591      H1595   1.079       .  S
C1592      C2276   1.489       .  S
C1592      C1593   1.406       .  A
C1593      H1596   1.084       .  S
C1597      N1598   1.356       .  A
C1597      N1602   1.361       .  A
C1597      C2252   1.473       .  S
N1598      C1599   1.357       .  A
C1599      N1600   1.356       .  A
C1599      C2255   1.467       .  S
N1600      C1601   1.356       .  A
C1601      N1602   1.359       .  A
C1601      C2259   1.477       .  S
Zr1603     O1604   2.442       .  S
Zr1603     O2379   2.429       .  S
Zr1603     O1606   2.433       .  S
Zr1603     O2385   2.381       .  S
Zr1603     O1612   2.389       .  S
Zr1603     O1613   2.406       .  S
Zr1603     O1614   2.400       .  S
O1604      H1660   0.990       .  S
O1604      H1668   0.990       .  S
O1605     Zr2377   2.440       .  S
O1605      C1625   1.283       .  A
O1606      C2401   1.282       .  A
O1607     Zr1617   2.431   1_554  S
O1607      C1626   1.284       .  A
O1608     Zr1616   2.430   1_554  S
O1608      C1627   1.282       .  A
O1609      C1626   1.284       .  A
O1610     Zr1618   2.396   1_554  S
O1610      C1625   1.278       .  A
O1611     Zr2377   2.381       .  S
O1611     Zr1616   2.388   1_554  S
O1611     Zr1618   2.381   1_554  S
O1612     Zr2392   2.379   1_554  S
O1612      H1647   0.967       .  S
O1613     Zr2390   2.397   1_554  S
O1613     Zr1633   2.392   1_554  S
O1613      H1650   0.967       .  S
O1614     Zr1633   2.383   1_554  S
Zr1615     O2414   2.443       .  S
Zr1615     O1634   2.436       .  S
Zr1615     O1642   2.431       .  S
Zr1615     O2404   2.443       .  S
Zr1615     O2395   2.405       .  S
Zr1615     O2396   2.401       .  S
Zr1615     O1623   2.375       .  S
Zr1615     O1624   2.389       .  S
Zr1616     O2409   2.439       .  S
Zr1616     O1628   2.435       .  S
Zr1616     O1629   2.420       .  S
Zr1616     O2387   2.399   1_546  S
Zr1616     O1622   2.401       .  S
Zr1616     O2397   2.394   1_545  S
Zr1617     O1619   2.437       .  S
Zr1617     O1641   2.434   1_556  S
Zr1617     O1643   2.427       .  S
Zr1618     O1644   2.434       .  S
Zr1618     O1645   2.435       .  S
Zr1618     O1620   2.438   1_556  S
Zr1618     O2386   2.377   1_556  S
Zr1618     O1621   2.386       .  S
Zr1618     O1622   2.390       .  S
O1619      H1656   0.990       .  S
O1620      H1651   0.990       .  S
O1620      H1665   0.990       .  S
O1621     Zr2389   2.395   1_545  S
O1622     Zr2389   2.408   1_545  S
O1622      H1648   0.965       .  S
O1623     Zr2390   2.387       .  S
O1623     Zr1633   2.374       .  S
O1624     Zr1633   2.377       .  S
O1624      H1649   0.966       .  S
C1625      C2319   1.467       .  S
C1626      C2308   1.476       .  S
C1627      C2296   1.469       .  S
C1627      O2380   1.281       .  A
O1628      H1664   0.990       .  S
O1629      C1631   1.281       .  A
O1630     Zr2389   2.445   1_545  S
O1630      C1631   1.287       .  A
C1631      C2272   1.474       .  S
O1632     Zr1633   2.437   1_554  S
O1632      H1661   0.990       .  S
Zr1633     O1636   2.435   1_556  S
Zr1633     O1637   2.440       .  S
Zr1633     O1638   2.410       .  S
O1634      C1639   1.283       .  A
O1635     Zr2390   2.437       .  S
O1635      H2426   0.990   1_556  S
O1635      H1667   0.990   1_556  S
O1636      H1653   0.990   1_554  S
O1637      H1657   0.990       .  S
O1637      H1666   0.990       .  S
O1638      C1639   1.280       .  A
C1639      C2256   1.469       .  S
O1640     Zr2389   2.441   1_545  S
O1640      H1659   0.990       .  S
O1640      H1663   0.990       .  S
O1641      H1655   0.990   1_554  S
O1641      H1662   0.990   1_554  S
O1642      C1646   1.283       .  A
O1644      H1654   0.990   1_556  S
O1645      H1658   0.990       .  S
H1652      O2409   0.991       .  S
C1669      N1670   1.364       .  A
C1669      N1674   1.354       .  A
C1669      C2244   1.471       .  S
N1670      C1671   1.365       .  A
C1671      N1672   1.357       .  A
C1671      C2248   1.482       .  S
N1672      C1673   1.352       .  A
C1673      N1674   1.354       .  A
C1673      C2239   1.466       .  S
C1675      N1676   1.359       .  A
C1675      N1680   1.352       .  A
C1675      C2231   1.460       .  S
N1676      C1677   1.358       .  A
C1677      N1678   1.359       .  A
C1677      C2227   1.472       .  S
N1678      C1679   1.354       .  A
C1679      N1680   1.352       .  A
C1679      C3010   1.463   1_545  S
C1681      N1682   1.360       .  A
C1681      N1686   1.363       .  A
C1681      C2219   1.474       .  S
N1682      C1683   1.355       .  A
C1683      N1684   1.350       .  A
C1683      C2215   1.467       .  S
N1684      C1685   1.354       .  A
C1685      N1686   1.361       .  A
C1685      C2223   1.467       .  S
C1687      C2228   1.473       .  S
C1687      C1688   1.401   1_545  A
C1687      C1692   1.407       .  A
C1688      C1689   1.398       .  A
C1688      H2467   1.084       .  S
C1689      C1690   1.395   1_565  A
C1690      C1691   1.404       .  A
C1691      C2216   1.479       .  S
C1691      C1692   1.402       .  A
C1692      H1695   1.083       .  S
H1693      C2462   1.082       .  S
Zr1696     O1697   2.440       .  S
Zr1696     O1698   2.442       .  S
Zr1696     O1699   2.426       .  S
Zr1696     O1702   2.434       .  S
Zr1696     O1704   2.375       .  S
Zr1696     O1705   2.378       .  S
Zr1696     O1706   2.408       .  S
Zr1696     O1707   2.399       .  S
O1697      H1753   0.990       .  S
O1697      H1761   0.990       .  S
O1698      C1718   1.284       .  A
O1699      C1720   1.283       .  A
O1700     Zr1710   2.420       .  S
O1700      C1719   1.281       .  A
O1701     Zr1709   2.413       .  S
O1701      C1720   1.278       .  A
O1702      C1719   1.285       .  A
O1703     Zr1711   2.423       .  S
O1703      C1718   1.283       .  A
O1704     Zr1709   2.392       .  S
O1704     Zr1711   2.373       .  S
O1705     Zr1710   2.389       .  S
O1705     Zr1711   2.380       .  S
O1705      H1740   0.966       .  S
O1706     Zr1709   2.396       .  S
O1706     Zr1726   2.400       .  S
O1706      H1743   0.966       .  S
O1707     Zr1710   2.387       .  S
O1707     Zr1726   2.400       .  S
Zr1708     O1733   2.441       .  S
Zr1708     O1727   2.437       .  S
Zr1708     O1735   2.435       .  S
Zr1708     O1723   2.442       .  S
Zr1708     O1714   2.406       .  S
Zr1708     O1715   2.403       .  S
Zr1708     O1716   2.379       .  S
Zr1708     O1717   2.379       .  S
Zr1709     O1728   2.435       .  S
Zr1709     O1721   2.437       .  S
Zr1709     O1722   2.419       .  S
Zr1709     O1715   2.393       .  S
Zr1709     O1716   2.390       .  S
Zr1710     O1712   2.436   1_655  S
Zr1710     O1734   2.438   1_655  S
Zr1710     O1736   2.403   1_655  S
Zr1710     O1714   2.399       .  S
Zr1710     O1717   2.394       .  S
Zr1711     O1737   2.435       .  S
Zr1711     O1738   2.436       .  S
Zr1711     O1713   2.438       .  S
Zr1711     O1714   2.402       .  S
Zr1711     O1715   2.389       .  S
O1713      H1744   0.990       .  S
O1713      H1758   0.990       .  S
O1715      H1741   0.964       .  S
O1716     Zr1726   2.374       .  S
O1717     Zr1726   2.377       .  S
O1717      H1742   0.967       .  S
C1718      C2243   1.482       .  S
C1719      C2224   1.474   1_655  S
C1720      C2232   1.465       .  S
O1721      H1757   0.990       .  S
O1722      C1724   1.282       .  A
O1723      C1724   1.287       .  A
C1724      C2268   1.474       .  S
O1725     Zr1726   2.440       .  S
O1725      H1754   0.991       .  S
Zr1726     O1729   2.437       .  S
Zr1726     O1730   2.440       .  S
Zr1726     O1731   2.431       .  S
O1727      C1732   1.283       .  A
O1728      H1745   0.990       .  S
O1728      H1760   0.990       .  S
O1729      H1746   0.990       .  S
O1730      H1750   0.990       .  S
O1730      H1759   0.990       .  S
O1731      C1732   1.284       .  A
C1732      C2280   1.480       .  S
O1733      H1752   0.990       .  S
O1733      H1756   0.990       .  S
O1734      H1755   0.990       .  S
O1735      C1739   1.285   1_655  A
O1736      C1739   1.277       .  A
O1737      H1747   0.990       .  S
O1738      H1751   0.990       .  S
C1762      N1763   1.357       .  A
C1762      N1767   1.353       .  A
C1762      C2212   1.462       .  S
N1763      C1764   1.358       .  A
C1764      N1765   1.357       .  A
C1764      C2207   1.464       .  S
N1765      C1766   1.355       .  A
C1766      N1767   1.356       .  A
C1766      C2203   1.467       .  S
C1768      N1769   1.362       .  A
C1768      N1773   1.357       .  A
C1768      C2195   1.478       .  S
N1769      C1770   1.363       .  A
C1770      N1771   1.355       .  A
C1770      C2199   1.475       .  S
N1771      C1772   1.355       .  A
C1772      N1773   1.355       .  A
C1772      C2192   1.466       .  S
C1774      N1775   1.365       .  A
C1774      N1779   1.364       .  A
C1774      C2957   1.474   1_545  S
N1775      C1776   1.356       .  A
C1776      C2179   1.481       .  S
C1778      N1779   1.361       .  A
C1780      C2204   1.470       .  S
C1780      C1781   1.403       .  A
C1780      C1785   1.405       .  A
C1781      C1782   1.400       .  A
C1781      H1786   1.083       .  S
C1782      C2180   1.478       .  S
C1782      C1783   1.400       .  A
C1783      C1784   1.406       .  A
C1784      C1785   1.397       .  A
C1785      H1788   1.084       .  S
Zr1789     O1790   2.443       .  S
Zr1789     O1791   2.440       .  S
Zr1789     O1792   2.447       .  S
Zr1789     O1795   2.433       .  S
Zr1789     O1797   2.384       .  S
Zr1789     O1798   2.385       .  S
Zr1789     O1799   2.403       .  S
Zr1789     O1800   2.402       .  S
O1790      H1846   0.990       .  S
O1790      H1854   0.991       .  S
O1791      C1811   1.283       .  A
O1792      C1813   1.285       .  A
O1793     Zr1803   2.431       .  S
O1793      C1812   1.284       .  A
O1794     Zr1802   2.432       .  S
O1794      C1813   1.284       .  A
O1795      C1812   1.284       .  A
O1796     Zr1804   2.415       .  S
O1796      C1811   1.281       .  A
O1797     Zr1802   2.400       .  S
O1797     Zr1804   2.380       .  S
O1798     Zr1803   2.391       .  S
O1798     Zr1804   2.375       .  S
O1798      H1833   0.965       .  S
O1799     Zr1802   2.401       .  S
O1799     Zr1819   2.385       .  S
O1799      H1836   0.965       .  S
O1800     Zr1803   2.399       .  S
O1800     Zr1819   2.389       .  S
Zr1801     O1826   2.442       .  S
Zr1801     O1820   2.436       .  S
Zr1801     O1828   2.419       .  S
Zr1801     O1816   2.420       .  S
Zr1801     O1807   2.399       .  S
Zr1801     O1808   2.407       .  S
Zr1801     O1809   2.378       .  S
Zr1801     O1810   2.377       .  S
Zr1802     O1821   2.437       .  S
Zr1802     O1814   2.435       .  S
Zr1802     O1815   2.441       .  S
Zr1802     O1808   2.402       .  S
Zr1802     O1809   2.392       .  S
Zr1803     O1805   2.434       .  S
Zr1803     O1827   2.436       .  S
Zr1803     O1829   2.444       .  S
Zr1803     O1807   2.392       .  S
Zr1803     O1810   2.393       .  S
Zr1804     O1830   2.437       .  S
Zr1804     O1831   2.437       .  S
Zr1804     O1806   2.438       .  S
Zr1804     O1807   2.397       .  S
Zr1804     O1808   2.389       .  S
O1805      H1842   0.990       .  S
O1806      H2611   0.990       .  S
O1806      H1851   0.990       .  S
O1808      H1834   0.964       .  S
O1809     Zr1819   2.379       .  S
O1810     Zr1819   2.381       .  S
O1810      H1835   0.967       .  S
C1811      C2235   1.474       .  S
C1812      C2220   1.471       .  S
C1813      C2247   1.476       .  S
O1814      H1850   0.990       .  S
O1815      C1817   1.286       .  A
O1816      C1817   1.280       .  A
C1817      C2184   1.466       .  S
O1818     Zr1819   2.439       .  S
O1818      H1847   0.990       .  S
Zr1819     O1822   2.438       .  S
Zr1819     O1823   2.440       .  S
Zr1819     O1824   2.404       .  S
O1820      C1825   1.282       .  A
O1821      H1838   0.990       .  S
O1821      H1853   0.990       .  S
O1822      H1839   0.990       .  S
O1823      H1843   0.990       .  S
O1823      H1852   0.990       .  S
O1824      C1825   1.279       .  A
C1825      C2208   1.468       .  S
O1826      H1845   0.990       .  S
O1826      H1849   0.991       .  S
O1827      H1841   0.990       .  S
O1827      H1848   0.990       .  S
O1828      C1832   1.282       .  A
O1829      C1832   1.286       .  A
O1830      H1840   0.990       .  S
O1831      H1844   0.990       .  S
C1832      C2196   1.479       .  S
H1837      O2580   0.990   1_545  S
C1855      N1856   1.354       .  A
C1855      N1860   1.355       .  A
C1855      C2175   1.457       .  S
N1856      C1857   1.358       .  A
C1857      N1858   1.355       .  A
C1857      C2171   1.464       .  S
N1858      C1859   1.357       .  A
C1859      N1860   1.353       .  A
C1859      C2167   1.465       .  S
C1861      N1862   1.357       .  A
C1861      C2160   1.475       .  S
C1863      N1864   1.356       .  A
C1863      C2163   1.466       .  S
N1864      C1865   1.353       .  A
C1865      N1866   1.349       .  A
C1865      C2155   1.463       .  S
C1867      N1868   1.358       .  A
C1867      N1872   1.363       .  A
C1867      C2148   1.468       .  S
N1868      C2643   1.354   1_545  A
C1869      N2642   1.352       .  A
C1869      N1870   1.350       .  A
C1869      C2144   1.460       .  S
N1870      C2645   1.355       .  A
C1871      N2644   1.354   1_545  A
C1871      N1872   1.362       .  A
C1871      C2152   1.477       .  S
C1873      C2168   1.470       .  S
C1873      C1874   1.407       .  A
C1873      C1878   1.402       .  A
C1874      C1875   1.400       .  A
C1874      H1879   1.084       .  S
C1875      C2143   1.481       .  S
C1875      C1876   1.403       .  A
C1876      C1877   1.400       .  A
C1876      H1880   1.081       .  S
C1877      C2156   1.481       .  S
C1877      C1878   1.398       .  A
C1878      H1881   1.084       .  S
Zr1882     O2657   2.443       .  S
Zr1882     O1884   2.440       .  S
Zr1882     O2659   2.438   1_545  S
Zr1882     O1888   2.424       .  S
Zr1882     O1890   2.383       .  S
Zr1882     O1891   2.389       .  S
Zr1882     O2666   2.412   1_545  S
Zr1882     O1893   2.400       .  S
O1883     Zr2656   2.441       .  S
O1883      H1939   0.990       .  S
O1883      H1947   0.990       .  S
O1884      C1904   1.283       .  A
O1885     Zr2656   2.421       .  S
O1885      C1906   1.280       .  A
O1886     Zr1896   2.430       .  S
O1886      C1905   1.283       .  A
O1887     Zr2669   2.445       .  S
O1887      C1906   1.287       .  A
O1888      C1905   1.282       .  A
O1889     Zr1897   2.401       .  S
O1889      C1904   1.278       .  A
O1890     Zr1895   2.403   1_545  S
O1890     Zr1897   2.387       .  S
O1891     Zr1896   2.386       .  S
O1891     Zr1897   2.377       .  S
O1891      H1926   0.966       .  S
O1892     Zr2656   2.401       .  S
O1892     Zr2669   2.390       .  S
O1892     Zr1912   2.390       .  S
O1892      H1929   0.965       .  S
O1893     Zr1896   2.387       .  S
O1893     Zr2686   2.385   1_545  S
Zr1894     O1919   2.447       .  S
Zr1894     O1913   2.422   1_545  S
Zr1894     O1921   2.426       .  S
Zr1894     O1909   2.417       .  S
Zr1894     O1900   2.396       .  S
Zr1894     O1901   2.399       .  S
Zr1894     O1902   2.383   1_545  S
Zr1894     O1903   2.380       .  S
Zr1895     O2688   2.439       .  S
Zr1895     O1907   2.435   1_565  S
Zr1895     O2661   2.431       .  S
Zr1895     O1908   2.441       .  S
Zr1895     O2666   2.401       .  S
Zr1895     O1901   2.393   1_565  S
Zr1895     O1902   2.386       .  S
Zr1896     O1920   2.437       .  S
Zr1896     O1922   2.428       .  S
Zr1896     O1900   2.390       .  S
Zr1896     O1903   2.384       .  S
Zr1897     O1923   2.437       .  S
Zr1897     O1924   2.435       .  S
Zr1897     O1899   2.438       .  S
Zr1897     O1900   2.390       .  S
Zr1897     O1901   2.383       .  S
O1898      H1935   0.990   1_655  S
O1899      H1930   0.990       .  S
O1899      H1944   0.990       .  S
O1901      H1927   0.966       .  S
O1902     Zr2686   2.378       .  S
O1903     Zr2686   2.372   1_545  S
O1903      H1928   0.967       .  S
C1904      C2211   1.469       .  S
C1905      C2188   1.465       .  S
C1906      C2200   1.473       .  S
O1907      H1943   0.990       .  S
O1908      C1910   1.286   1_565  A
O1909      C1910   1.281       .  A
C1910      C2151   1.467   1_545  S
O1911      H1940   0.990       .  S
Zr1912     O1915   2.439       .  S
Zr1912     O2667   2.391       .  S
Zr1912     O2676   2.374       .  S
Zr1912     O2677   2.379       .  S
O1913      C2692   1.282       .  A
O1914     Zr2669   2.436       .  S
O1914      H1931   0.990       .  S
O1914      H1946   0.990       .  S
O1916      H1936   0.990       .  S
O1916      H1945   0.990       .  S
C1918      O2687   1.278       .  A
O1919      H1938   0.990       .  S
O1919      H1942   0.991       .  S
O1920      H1934   0.990       .  S
O1920      H1941   0.990       .  S
O1921      C1925   1.282       .  A
O1922      C1925   1.285       .  A
O1923      H1933   0.990       .  S
O1924      H1937   0.990       .  S
C1925      C2164   1.471       .  S
C1948      N1949   1.357       .  A
C1948      N1953   1.360       .  A
C1948      C2135   1.468       .  S
N1949      C1950   1.354       .  A
C1950      N2725   1.354       .  A
N1951      C2724   1.355       .  A
N1951      C1952   1.350       .  A
C1952      N2727   1.356       .  A
C1952      C2139   1.460       .  S
N1953      C2726   1.360       .  A
C1954      N1955   1.358       .  A
C1954      N1959   1.357       .  A
C1954      C2128   1.473       .  S
N1955      C1956   1.361       .  A
C1956      N1957   1.359       .  A
C1956      C2123   1.471       .  S
N1957      C1958   1.357       .  A
C1958      N1959   1.352       .  A
C1958      C2119   1.472       .  S
C1960      N1961   1.361       .  A
C1960      N1965   1.361       .  A
C1960      C2112   1.468       .  S
N1961      C1962   1.359       .  A
C1962      N1963   1.356       .  A
C1962      C2115   1.477       .  S
N1963      C1964   1.353       .  A
C1964      N1965   1.357       .  A
C1964      C2107   1.472       .  S
C1966      C2132   1.477       .  S
C1966      C1967   1.408       .  A
C1966      C2745   1.406       .  A
C1967      C1968   1.402       .  A
C1967      H1972   1.083       .  S
C1968      C2108   1.488       .  S
C1968      C1969   1.405       .  A
C1969      C2744   1.404       .  A
C1969      H1973   1.079       .  S
C1970      C2120   1.485       .  S
C1970      C2743   1.407       .  A
C1970      C1971   1.400       .  A
C1971      C2740   1.405       .  A
C1971      H1974   1.084       .  S
Zr1975     O1976   2.443       .  S
Zr1975     O1977   2.460       .  S
Zr1975     O1978   2.444       .  S
Zr1975     O1981   2.442       .  S
Zr1975     O1983   2.380       .  S
Zr1975     O1984   2.386       .  S
Zr1975     O1985   2.420       .  S
Zr1975     O1986   2.408       .  S
O1976      H2032   0.991       .  S
O1976      H2040   0.990       .  S
O1977      C1997   1.285       .  A
O1978      C1999   1.285       .  A
O1979     Zr1989   2.415       .  S
O1979      C1998   1.281       .  A
O1980     Zr1988   2.429       .  S
O1980      C1999   1.281       .  A
O1981      C1998   1.286       .  A
O1982     Zr1990   2.391       .  S
O1982      C1997   1.277       .  A
O1983     Zr1988   2.384       .  S
O1983     Zr1990   2.383       .  S
O1984     Zr1989   2.395       .  S
O1984     Zr1990   2.381       .  S
O1984      H2019   0.965       .  S
O1985     Zr1988   2.399       .  S
O1985     Zr2005   2.390       .  S
O1985      H2022   0.965       .  S
O1986     Zr1989   2.393       .  S
O1986     Zr2005   2.397       .  S
Zr1987     O2012   2.441       .  S
Zr1987     O2006   2.426       .  S
Zr1987     O2014   2.442       .  S
Zr1987     O2002   2.437       .  S
Zr1987     O1993   2.393       .  S
Zr1987     O1994   2.403       .  S
Zr1987     O1995   2.380       .  S
Zr1987     O1996   2.388       .  S
Zr1988     O2007   2.438       .  S
Zr1988     O2000   2.433       .  S
Zr1988     O2001   2.409       .  S
Zr1988     O1994   2.398       .  S
Zr1988     O1995   2.391       .  S
Zr1989     O1991   2.435       .  S
Zr1989     O2013   2.435       .  S
Zr1989     O2015   2.426       .  S
Zr1989     O1993   2.391       .  S
Zr1989     O1996   2.390       .  S
Zr1990     O2016   2.435       .  S
Zr1990     O2017   2.436       .  S
Zr1990     O1992   2.436       .  S
Zr1990     O1993   2.378       .  S
Zr1990     O1994   2.390       .  S
O1991      H2028   0.990       .  S
O1992      H2023   0.990       .  S
O1992      H2037   0.990       .  S
O1994      H2020   0.966       .  S
O1995     Zr2005   2.371       .  S
O1996     Zr2005   2.377       .  S
O1996      H2021   0.966       .  S
C1997      C2136   1.474       .  S
C1998      C2116   1.471       .  S
C1999      C2124   1.470       .  S
O2000      H2036   0.990       .  S
O2001      C2003   1.280       .  A
O2002      C2003   1.285       .  A
C2003      C2304   1.465       .  S
O2004     Zr2005   2.439       .  S
O2004      H2033   0.991       .  S
Zr2005     O2008   2.439       .  S
Zr2005     O2009   2.441       .  S
Zr2005     O2010   2.412       .  S
O2006      C2011   1.280       .  A
O2007      H2024   0.990       .  S
O2007      H2039   0.990       .  S
O2008      H2025   0.990       .  S
O2009      H2029   0.990       .  S
O2009      H2038   0.989       .  S
O2010      C2011   1.281       .  A
C2011      C2315   1.468       .  S
O2012      H2031   0.990       .  S
O2012      H2035   0.990       .  S
O2013      H2027   0.990       .  S
O2013      H2034   0.990       .  S
O2014      C2018   1.286       .  A
O2015      C2018   1.281       .  A
O2016      H2026   0.990       .  S
O2017      H2030   0.990       .  S
C2018      C2291   1.474       .  S
Zr2041     O2042   2.441       .  S
Zr2041     O2043   2.424       .  S
Zr2041     O2044   2.455       .  S
Zr2041     O2047   2.431       .  S
Zr2041     O2049   2.386       .  S
Zr2041     O2050   2.387       .  S
Zr2041     O2051   2.402       .  S
Zr2041     O2052   2.402       .  S
O2042      H2098   0.991       .  S
O2042      H2106   0.990       .  S
O2043      C2063   1.280       .  A
O2045     Zr2055   2.409       .  S
O2045      C2064   1.279       .  A
O2046      C2065   1.284       .  A
O2047      C2064   1.284       .  A
O2048     Zr2056   2.406       .  S
O2048      C2063   1.281       .  A
O2049     Zr2054   2.396       .  S
O2049     Zr2056   2.385       .  S
O2050     Zr2055   2.384       .  S
O2050     Zr2056   2.369       .  S
O2050      H2085   0.966       .  S
O2051     Zr2054   2.398       .  S
O2051     Zr2071   2.393       .  S
O2051      H2088   0.966       .  S
O2052     Zr2055   2.387       .  S
O2052     Zr2071   2.387       .  S
Zr2053     O2078   2.441       .  S
Zr2053     O2072   2.421       .  S
Zr2053     O2080   2.448       .  S
Zr2053     O2068   2.430       .  S
Zr2053     O2059   2.398       .  S
Zr2053     O2060   2.404       .  S
Zr2053     O2061   2.385       .  S
Zr2053     O2062   2.382       .  S
Zr2054     O2073   2.436   1_655  S
Zr2054     O2066   2.434   1_655  S
Zr2054     O2067   2.430   1_655  S
Zr2054     O2060   2.398       .  S
Zr2054     O2061   2.390       .  S
Zr2055     O2057   2.434       .  S
Zr2055     O2079   2.437       .  S
Zr2055     O2081   2.410       .  S
Zr2055     O2059   2.396       .  S
Zr2055     O2062   2.381       .  S
Zr2056     O2082   2.436       .  S
Zr2056     O2083   2.437       .  S
Zr2056     O2058   2.438       .  S
Zr2056     O2059   2.393       .  S
Zr2056     O2060   2.383       .  S
O2057      H2094   0.990       .  S
O2058      H2089   0.991       .  S
O2058      H2103   0.990       .  S
O2060      H2086   0.966       .  S
O2061     Zr2071   2.380       .  S
O2062     Zr2071   2.378       .  S
O2062      H2087   0.965       .  S
C2063      C2140   1.465       .  S
C2064      C2127   1.463       .  S
C2065      C2111   1.471       .  S
O2066      H2102   0.990       .  S
O2067      C2069   1.283   1_455  A
O2068      C2069   1.284       .  A
C2069      C2159   1.472   1_655  S
O2070     Zr2071   2.441       .  S
O2070      H2099   0.990       .  S
Zr2071     O2074   2.436       .  S
Zr2071     O2075   2.440       .  S
Zr2071     O2076   2.413       .  S
O2072      C2077   1.280       .  A
O2074      H2091   0.990       .  S
O2075      H2095   0.990       .  S
O2075      H2104   0.989       .  S
O2076      C2077   1.282       .  A
C2077      C2172   1.464       .  S
O2078      H2097   0.990       .  S
O2078      H2101   0.990       .  S
O2079      H2093   0.990       .  S
O2079      H2100   0.990       .  S
O2080      C2084   1.285       .  A
O2081      C2084   1.280       .  A
O2082      H2092   0.990       .  S
O2083      H2096   0.990       .  S
C2084      C2147   1.471       .  S
C2107      C2108   1.346       .  D
C2107      H2109   1.085       .  S
C2108      H2110   1.087       .  S
C2111      C2112   1.342       .  D
C2111      H2113   1.087       .  S
C2112      H2114   1.087       .  S
C2115      C2116   1.345       .  D
C2115      H2117   1.086       .  S
C2116      H2118   1.087       .  S
C2119      C2120   1.343       .  D
C2119      H2121   1.085       .  S
C2120      H2122   1.087       .  S
C2123      C2124   1.342       .  D
C2123      H2125   1.087       .  S
C2124      H2126   1.087       .  S
C2127      C2128   1.343       .  D
C2127      H2129   1.087       .  S
C2128      H2130   1.087       .  S
C2131      C2132   1.345       .  D
C2132      H2908   1.087       .  S
H2134      C2906   1.087   1_565  S
C2135      C2136   1.345       .  D
C2135      H2137   1.088       .  S
C2136      H2138   1.086       .  S
C2139      C2140   1.338       .  D
C2139      H2141   1.088       .  S
C2140      H2142   1.087       .  S
C2143      C2144   1.345       .  D
C2143      H2145   1.087       .  S
C2144      H2146   1.086       .  S
C2147      C2148   1.344       .  D
C2147      H2149   1.087       .  S
C2148      H2150   1.086       .  S
C2151      C2152   1.350   1_565  D
C2151      H2927   1.087       .  S
C2152      H2154   1.087       .  S
H2153      C2925   1.087       .  S
C2155      C2156   1.344       .  D
C2155      H2157   1.085       .  S
C2156      H2158   1.087       .  S
C2159      C2160   1.346       .  D
C2159      H2161   1.087       .  S
C2160      H2162   1.086   1_455  S
C2163      C2164   1.339       .  D
C2163      H2165   1.087       .  S
C2164      H2166   1.087       .  S
C2167      C2168   1.339       .  D
C2167      H2169   1.087       .  S
C2168      H2170   1.087       .  S
C2171      C2172   1.338       .  D
C2171      H2173   1.087       .  S
C2172      H2174   1.087       .  S
C2175      C2176   1.337       .  D
C2175      H2177   1.087       .  S
C2176      H2178   1.088       .  S
C2179      C2180   1.350       .  D
C2179      H2181   1.085       .  S
C2180      H2182   1.087       .  S
C2183      C2548   1.472       .  S
C2183      C2184   1.340       .  D
C2183      H2959   1.086       .  S
C2184      H2186   1.088       .  S
H2185      C2957   1.086       .  S
C2187      C2188   1.348       .  D
C2188      H2190   1.087       .  S
C2191      C2192   1.345       .  D
C2191      H2193   1.087       .  S
C2192      H2194   1.086       .  S
C2195      C2196   1.349       .  D
C2195      H2197   1.086       .  S
C2196      H2198   1.087       .  S
C2199      C2200   1.341       .  D
C2199      H2201   1.088       .  S
C2200      H2202   1.087       .  S
C2203      C2204   1.341       .  D
C2203      H2205   1.087       .  S
C2204      H2206   1.087       .  S
C2207      C2208   1.341       .  D
C2207      H2209   1.087       .  S
C2208      H2210   1.087       .  S
C2211      C2212   1.342       .  D
C2211      H2213   1.087       .  S
C2212      H2214   1.087       .  S
C2215      C2216   1.343       .  D
C2215      H2217   1.086       .  S
C2216      H2218   1.086       .  S
C2219      C2220   1.343       .  D
C2219      H2221   1.086       .  S
C2220      H2222   1.088       .  S
C2224      H2226   1.088       .  S
C2227      C2228   1.342       .  D
C2227      H2229   1.086       .  S
C2228      H2230   1.087   1_545  S
C2231      C2232   1.337       .  D
C2231      H2233   1.087       .  S
C2232      H2234   1.087       .  S
C2235      C2236   1.343       .  D
C2235      H2237   1.086       .  S
C2236      C2453   1.468       .  S
C2236      H2238   1.087       .  S
C2239      C2240   1.343   1_655  D
C2239      H2241   1.086       .  S
C2243      C2244   1.343       .  D
C2243      H2245   1.087       .  S
C2244      H2246   1.087       .  S
C2247      C2248   1.350       .  D
C2247      H2249   1.087       .  S
C2248      H2250   1.086       .  S
C2251      C2252   1.340       .  D
C2251      H2253   1.087       .  S
C2252      H2254   1.087       .  S
C2255      C2256   1.342       .  D
C2255      H2257   1.087       .  S
C2256      H2258   1.087       .  S
C2259      C2260   1.342       .  D
C2259      H2261   1.087       .  S
C2260      H2262   1.087       .  S
C2263      C2264   1.344       .  D
C2263      H2265   1.083       .  S
C2264      H2266   1.087       .  S
C2267      C2268   1.340       .  D
C2267      H2269   1.087       .  S
C2268      H2270   1.088       .  S
C2271      C2272   1.341       .  D
C2271      H2273   1.087       .  S
C2272      H2274   1.087       .  S
C2275      C2276   1.348       .  D
C2275      H2277   1.085       .  S
C2276      H2278   1.087       .  S
C2279      C2280   1.345       .  D
C2279      H2281   1.087       .  S
C2280      H2282   1.087       .  S
C2283      C2284   1.349       .  D
C2283      H3059   1.086       .  S
C2284      H2286   1.087       .  S
H2285      C3057   1.086   1_545  S
C2287      C2288   1.343       .  D
C2287      H2289   1.087       .  S
C2288      H2290   1.086       .  S
C2291      C2292   1.342       .  D
C2291      H2293   1.086       .  S
C2292      H2294   1.088       .  S
C2295      C2296   1.348       .  D
C2295      H2297   1.087   1_545  S
C2296      H3072   1.087       .  S
H2298      C3070   1.087       .  S
C2299      C2300   1.345       .  D
C2299      H2301   1.085       .  S
C2300      H2302   1.087       .  S
C2303      C2304   1.342       .  D
C2303      H2305   1.087       .  S
C2304      H2306   1.087       .  S
C2307      C2308   1.341       .  D
C2307      H2309   1.086       .  S
C2308      H2310   1.087       .  S
C2311      C2312   1.346   1_455  D
C2311      H2313   1.085       .  S
C2312      H2314   1.087       .  S
C2315      C2316   1.339       .  D
C2315      H2317   1.087       .  S
C2316      H2318   1.087       .  S
C2319      C2320   1.344       .  D
C2319      H2321   1.087       .  S
C2320      H2322   1.087       .  S
C2323      N2324   1.357       .  A
C2323      N2328   1.356       .  A
C2323      C3090   1.457       .  S
N2324      C2325   1.356       .  A
C2325      N2326   1.353       .  A
C2325      C3094   1.459       .  S
C2327      C3085   1.469       .  S
C2329      N2330   1.360       .  A
C2329      N2334   1.365       .  A
C2329      C3081   1.472       .  S
N2330      C2331   1.356       .  A
C2331      N2332   1.349       .  A
C2331      C3073   1.468       .  S
N2332      C2333   1.355       .  A
C2333      N2334   1.363       .  A
C2333      C3077   1.479       .  S
C2335      N2340   1.356       .  A
C2335      C3069   1.476       .  S
N2336      C2337   1.363   1_565  A
C2337      C3066   1.470   1_545  S
N2338      C2339   1.356       .  A
C2339      N2340   1.349       .  A
C2339      C3062   1.468       .  S
C2341      C3086   1.471       .  S
C2341      C2342   1.399       .  A
C2341      C2346   1.406       .  A
C2342      C2343   1.395       .  A
C2342      H2347   1.085       .  S
C2343      C3061   1.479       .  S
C2343      C2344   1.404       .  A
C2344      C2345   1.406       .  A
C2344      H2348   1.082       .  S
C2345      C3074   1.479       .  S
C2345      C2346   1.399       .  A
C2346      H2349   1.083       .  S
C2350      N2355   1.366       .  A
C2350      C3053   1.476       .  S
N2351      C2352   1.358       .  A
C2352      N2353   1.348       .  A
C2352      C3049   1.467       .  S
N2353      C2354   1.353       .  A
C2354      C3057   1.476       .  S
C2356      N2357   1.356       .  A
C2356      N2361   1.362       .  A
C2356      C3045   1.470       .  S
N2357      C2358   1.356       .  A
C2358      N2359   1.352       .  A
C2358      C3037   1.473       .  S
N2359      C2360   1.355       .  A
C2360      N2361   1.361       .  A
C2360      C3041   1.464       .  S
C2362      C3034   1.476       .  S
C2362      C2363   1.403       .  A
C2362      C2367   1.397       .  A
C2363      C2364   1.403       .  A
C2363      H2368   1.084       .  S
C2364      C3038   1.488       .  S
C2364      C2365   1.410       .  A
C2365      C2366   1.407       .  A
C2365      H2369   1.078       .  S
C2366      C3050   1.480       .  S
C2366      C2367   1.398       .  A
C2367      H2370   1.085       .  S
C2371      N2372   1.353       .  A
C2371      N2376   1.355       .  A
C2371      C3026   1.463       .  S
N2372      C2373   1.358       .  A
C2373      N2374   1.358       .  A
C2373      C3029   1.466       .  S
N2374      C2375   1.359       .  A
C2375      N2376   1.352       .  A
C2375      C3033   1.467       .  S
Zr2377     O2378   2.444   1_545  S
Zr2377     O2380   2.429       .  S
Zr2377     O2386   2.380       .  S
Zr2377     O2387   2.409   1_545  S
Zr2377     O2388   2.401   1_545  S
O2378      H2434   0.990   1_565  S
O2378      H2442   0.991       .  S
O2379      C2399   1.281       .  A
O2381     Zr2391   2.450   1_554  S
O2381      C2400   1.286       .  A
O2382     Zr2390   2.422   1_554  S
O2382      C2401   1.282       .  A
O2383      C2400   1.283       .  A
O2384     Zr2392   2.405   1_554  S
O2384      C2399   1.280       .  A
O2385     Zr2390   2.387   1_554  S
O2385     Zr2392   2.383   1_554  S
O2386      H2421   0.964       .  S
O2387     Zr2407   2.391   1_554  S
O2387      H2424   0.964       .  S
O2388     Zr2407   2.391   1_554  S
Zr2389     O2408   2.431       .  S
Zr2389     O2416   2.452       .  S
Zr2389     O2397   2.386       .  S
Zr2389     O2398   2.382       .  S
Zr2390     O2402   2.435       .  S
Zr2390     O2403   2.421       .  S
Zr2390     O2396   2.391       .  S
Zr2391     O2393   2.437       .  S
Zr2391     O2415   2.436       .  S
Zr2391     O2417   2.441       .  S
Zr2392     O2418   2.435       .  S
Zr2392     O2419   2.436       .  S
Zr2392     O2394   2.437       .  S
Zr2392     O2395   2.386       .  S
Zr2392     O2396   2.390       .  S
O2393      H2430   0.990       .  S
O2394      H2425   0.991   1_556  S
O2394      H2439   0.990   1_556  S
O2396      H2422   0.967       .  S
O2397     Zr2407   2.373       .  S
O2398     Zr2407   2.378       .  S
O2398      H2423   0.966       .  S
C2399      C3093   1.468       .  S
C2400      C3082   1.483       .  S
C2401      C3070   1.467       .  S
O2402      H2438   0.990       .  S
O2403      C2405   1.281       .  A
O2404      C2405   1.286       .  A
C2405      C3046   1.474       .  S
O2406     Zr2407   2.438   1_554  S
O2406      H2435   0.990       .  S
Zr2407     O2410   2.436   1_556  S
Zr2407     O2411   2.441       .  S
Zr2407     O2412   2.411       .  S
O2408      C2413   1.282       .  A
O2409      H2441   0.990   1_556  S
O2410      H2427   0.990   1_554  S
O2411      H2431   0.990       .  S
O2411      H2440   0.990       .  S
O2412      C2413   1.281       .  A
C2413      C3030   1.468       .  S
O2414      H2433   0.990       .  S
O2414      H2437   0.990       .  S
O2415      H2429   0.990   1_565  S
O2415      H2436   0.990       .  S
O2416      C2420   1.288       .  A
O2418      H2428   0.990   1_556  S
O2419      H2432   0.990       .  S
C2443      N2444   1.366       .  A
C2443      N2448   1.360       .  A
C2443      C3018   1.472       .  S
N2444      C2445   1.364       .  A
C2445      N2446   1.355       .  A
C2445      C3022   1.483       .  S
N2446      C2447   1.350       .  A
C2447      N2448   1.356       .  A
C2447      C3013   1.470       .  S
C2449      N2450   1.358       .  A
C2449      N2454   1.362       .  A
C2449      C3005   1.473       .  S
N2450      C2451   1.358       .  A
C2451      N2452   1.354       .  A
C2451      C3001   1.466       .  S
N2452      C2453   1.354       .  A
C2453      N2454   1.359       .  A
C2455      N2456   1.361       .  A
C2455      N2460   1.361       .  A
C2455      C2993   1.471       .  S
N2456      C2457   1.355       .  A
C2457      N2458   1.350       .  A
C2457      C2989   1.466       .  S
N2458      C2459   1.352       .  A
C2459      N2460   1.359       .  A
C2459      C2997   1.461       .  S
C2461      C3002   1.477       .  S
C2461      C2462   1.402       .  A
C2461      C2466   1.401       .  A
C2462      C2463   1.402       .  A
C2463      C2464   1.397       .  A
C2464      C2465   1.407       .  A
C2465      C2990   1.479       .  S
C2465      C2466   1.402       .  A
C2466      H2469   1.084       .  S
Zr2470     O2471   2.441       .  S
Zr2470     O2472   2.450       .  S
Zr2470     O2473   2.431       .  S
Zr2470     O2476   2.432       .  S
Zr2470     O2478   2.381       .  S
Zr2470     O2479   2.377       .  S
Zr2470     O2480   2.413       .  S
Zr2470     O2481   2.404       .  S
O2471      H2527   0.990       .  S
O2471      H2535   0.990       .  S
O2472      C2492   1.286       .  A
O2473      C2494   1.282       .  A
O2474     Zr2484   2.420   1_455  S
O2474      C2493   1.281   1_455  A
O2475     Zr2483   2.434       .  S
O2475      C2494   1.285       .  A
O2476      C2493   1.285       .  A
O2477     Zr2485   2.415       .  S
O2477      C2492   1.281       .  A
O2478     Zr2483   2.396       .  S
O2478     Zr2485   2.381       .  S
O2479     Zr2484   2.384       .  S
O2479     Zr2485   2.370       .  S
O2479      H2514   0.966       .  S
O2480     Zr2483   2.398       .  S
O2480     Zr2500   2.394       .  S
O2480      H2517   0.965       .  S
O2481     Zr2484   2.391       .  S
O2481     Zr2500   2.399       .  S
Zr2482     O2507   2.441       .  S
Zr2482     O2501   2.440       .  S
Zr2482     O2509   2.441       .  S
Zr2482     O2497   2.435       .  S
Zr2482     O2488   2.407       .  S
Zr2482     O2489   2.408       .  S
Zr2482     O2490   2.378       .  S
Zr2482     O2491   2.380       .  S
Zr2483     O2502   2.436       .  S
Zr2483     O2495   2.435       .  S
Zr2483     O2496   2.421       .  S
Zr2483     O2489   2.398       .  S
Zr2483     O2490   2.392       .  S
Zr2484     O2486   2.435   1_655  S
Zr2484     O2508   2.437   1_655  S
Zr2484     O2510   2.407   1_655  S
Zr2484     O2488   2.395       .  S
Zr2484     O2491   2.396       .  S
Zr2485     O2511   2.436       .  S
Zr2485     O2512   2.435       .  S
Zr2485     O2487   2.436       .  S
Zr2485     O2488   2.401       .  S
Zr2485     O2489   2.391       .  S
O2487      H2518   0.990       .  S
O2487      H2532   0.990       .  S
O2489      H2515   0.966       .  S
O2490     Zr2500   2.373       .  S
O2491     Zr2500   2.371       .  S
O2491      H2516   0.966       .  S
C2492      C3017   1.484       .  S
C2493      C2998   1.475   1_655  S
C2494      C3006   1.473       .  S
O2495      H2531   0.990       .  S
O2496      C2498   1.282       .  A
O2497      C2498   1.286       .  A
C2498      C3042   1.474       .  S
O2499     Zr2500   2.437       .  S
O2499      H2528   0.990       .  S
Zr2500     O2503   2.437       .  S
Zr2500     O2504   2.439       .  S
Zr2500     O2505   2.430       .  S
O2501      C2506   1.284       .  A
O2502      H2519   0.990       .  S
O2502      H2534   0.990       .  S
O2503      H2520   0.990       .  S
O2504      H2524   0.990       .  S
O2504      H2533   0.990       .  S
O2505      C2506   1.284       .  A
C2506      C3054   1.482       .  S
O2507      H2526   0.990       .  S
O2507      H2530   0.990       .  S
O2508      H2529   0.990       .  S
O2509      C2513   1.286   1_655  A
O2510      C2513   1.278       .  A
O2511      H2521   0.990       .  S
O2512      H2525   0.990       .  S
C2536      N2537   1.355       .  A
C2536      N2541   1.349       .  A
C2536      C2986   1.457       .  S
N2537      C2538   1.358       .  A
C2538      N2539   1.359       .  A
C2538      C2981   1.463       .  S
N2539      C2540   1.357       .  A
C2540      N2541   1.354       .  A
C2540      C2977   1.471       .  S
C2542      N2543   1.358       .  A
C2542      N2547   1.354       .  A
C2542      C2969   1.472       .  S
N2543      C2544   1.362       .  A
C2544      N2545   1.359       .  A
C2544      C2973   1.473       .  S
N2545      C2546   1.357       .  A
C2546      N2547   1.351       .  A
C2546      C2966   1.464       .  S
C2548      N2549   1.362       .  A
C2548      N2553   1.363       .  A
N2549      C2550   1.351       .  A
C2550      C2953   1.470       .  S
C2552      N2553   1.360       .  A
C2554      C2978   1.466       .  S
C2554      C2555   1.398       .  A
C2554      C2559   1.404       .  A
C2555      C2556   1.398       .  A
C2555      H2560   1.084       .  S
C2556      C2954   1.471       .  S
C2556      C2557   1.396       .  A
C2557      C2558   1.404       .  A
C2558      C2559   1.402       .  A
C2559      H2562   1.084       .  S
Zr2563     O2564   2.443       .  S
Zr2563     O2565   2.448       .  S
Zr2563     O2566   2.443       .  S
Zr2563     O2569   2.429       .  S
Zr2563     O2571   2.386       .  S
Zr2563     O2572   2.387       .  S
Zr2563     O2573   2.408       .  S
Zr2563     O2574   2.398       .  S
O2564      H2620   0.990       .  S
O2564      H2628   0.991       .  S
O2565      C2585   1.284       .  A
O2566      C2587   1.283       .  A
O2567     Zr2577   2.425       .  S
O2567      C2586   1.283       .  A
O2568     Zr2576   2.436       .  S
O2568      C2587   1.285       .  A
O2569      C2586   1.282       .  A
O2570     Zr2578   2.387       .  S
O2570      C2585   1.277       .  A
O2571     Zr2576   2.401       .  S
O2571     Zr2578   2.387       .  S
O2572     Zr2577   2.386       .  S
O2572     Zr2578   2.378       .  S
O2572      H2607   0.966       .  S
O2573     Zr2576   2.402       .  S
O2573     Zr2593   2.384       .  S
O2573      H2610   0.965       .  S
O2574     Zr2577   2.389       .  S
O2574     Zr2593   2.384       .  S
Zr2575     O2600   2.444       .  S
Zr2575     O2594   2.432       .  S
Zr2575     O2602   2.432       .  S
Zr2575     O2590   2.439       .  S
Zr2575     O2581   2.398       .  S
Zr2575     O2582   2.410       .  S
Zr2575     O2583   2.379       .  S
Zr2575     O2584   2.383       .  S
Zr2576     O2595   2.435       .  S
Zr2576     O2588   2.435       .  S
Zr2576     O2589   2.445       .  S
Zr2576     O2582   2.404       .  S
Zr2576     O2583   2.395       .  S
Zr2577     O2579   2.435       .  S
Zr2577     O2601   2.439       .  S
Zr2577     O2603   2.419       .  S
Zr2577     O2581   2.387       .  S
Zr2577     O2584   2.393       .  S
Zr2578     O2604   2.436       .  S
Zr2578     O2605   2.436       .  S
Zr2578     O2580   2.437       .  S
Zr2578     O2581   2.383       .  S
Zr2578     O2582   2.375       .  S
O2579      H2616   0.990       .  S
O2580      H2625   0.990       .  S
O2582      H2608   0.965       .  S
O2583     Zr2593   2.384       .  S
O2584     Zr2593   2.380       .  S
O2584      H2609   0.966       .  S
C2585      C3009   1.465       .  S
C2586      C2994   1.464       .  S
C2587      C3021   1.473       .  S
O2588      H2624   0.990       .  S
O2589      C2591   1.286       .  A
O2590      C2591   1.283       .  A
C2591      C2958   1.475       .  S
O2592     Zr2593   2.440       .  S
O2592      H2621   0.990       .  S
Zr2593     O2596   2.437       .  S
Zr2593     O2597   2.441       .  S
Zr2593     O2598   2.400       .  S
O2594      C2599   1.281       .  A
O2595      H2612   0.990       .  S
O2595      H2627   0.990       .  S
O2596      H2613   0.990       .  S
O2597      H2617   0.990       .  S
O2597      H2626   0.990       .  S
O2598      C2599   1.278       .  A
C2599      C2982   1.463       .  S
O2600      H2619   0.991       .  S
O2600      H2623   0.991       .  S
O2601      H2615   0.990       .  S
O2601      H2622   0.990       .  S
O2602      C2606   1.284       .  A
O2603      C2606   1.282       .  A
O2604      H2614   0.990       .  S
O2605      H2618   0.991       .  S
C2606      C2970   1.469       .  S
C2629      N2630   1.358       .  A
C2629      N2634   1.356       .  A
C2629      C2949   1.469       .  S
N2630      C2631   1.360       .  A
C2631      N2632   1.354       .  A
C2631      C2945   1.459       .  S
N2632      C2633   1.354       .  A
C2633      N2634   1.350       .  A
C2633      C2941   1.462       .  S
C2635      N2636   1.362       .  A
C2635      C2934   1.486   1_455  S
C2637      N2638   1.358       .  A
C2637      C2937   1.470       .  S
N2638      C2639   1.354       .  A
C2639      N2640   1.351       .  A
C2639      C2929   1.459       .  S
C2641      N2642   1.359       .  A
C2641      N2646   1.362       .  A
C2641      C2922   1.469       .  S
C2643      N2644   1.349       .  A
C2643      C2918   1.459       .  S
C2645      N2646   1.362       .  A
C2645      C2926   1.478       .  S
C2647      C2942   1.470       .  S
C2647      C2648   1.403       .  A
C2647      C2652   1.401       .  A
C2648      C2649   1.396       .  A
C2648      H2653   1.084       .  S
C2649      C2917   1.479       .  S
C2649      C2650   1.405       .  A
C2650      C2651   1.404       .  A
C2650      H2654   1.077       .  S
C2651      C2930   1.484       .  S
C2651      C2652   1.401       .  A
C2652      H2655   1.084       .  S
Zr2656     O2658   2.421       .  S
Zr2656     O2662   2.408       .  S
Zr2656     O2664   2.381       .  S
Zr2656     O2665   2.382       .  S
Zr2656     O2667   2.397       .  S
O2657      H2713   0.990       .  S
O2657      H2721   0.991   1_545  S
O2658      C2678   1.280       .  A
O2659      C2680   1.282       .  A
O2660     Zr2670   2.428       .  S
O2660      C2679   1.284       .  A
O2661      C2680   1.284       .  A
O2662      C2679   1.280       .  A
O2663     Zr2671   2.410       .  S
O2663      C2678   1.282       .  A
O2664     Zr2669   2.389       .  S
O2664     Zr2671   2.382       .  S
O2665     Zr2670   2.374       .  S
O2665     Zr2671   2.370       .  S
O2665      H2700   0.967       .  S
O2666     Zr2686   2.396       .  S
O2666      H2703   0.965       .  S
O2667     Zr2670   2.390       .  S
Zr2668     O2693   2.441       .  S
Zr2668     O2687   2.411       .  S
Zr2668     O2695   2.434       .  S
Zr2668     O2683   2.430       .  S
Zr2668     O2674   2.397       .  S
Zr2668     O2675   2.403       .  S
Zr2668     O2676   2.387       .  S
Zr2668     O2677   2.381       .  S
Zr2669     O2681   2.435       .  S
Zr2669     O2682   2.426       .  S
Zr2669     O2675   2.399       .  S
Zr2669     O2676   2.392       .  S
Zr2670     O2694   2.437       .  S
Zr2670     O2696   2.426       .  S
Zr2670     O2674   2.394       .  S
Zr2670     O2677   2.390       .  S
Zr2671     O2697   2.436       .  S
Zr2671     O2698   2.437       .  S
Zr2671     O2673   2.436       .  S
Zr2671     O2674   2.393       .  S
Zr2671     O2675   2.382       .  S
O2672      H2709   0.990       .  S
O2673      H2704   0.990       .  S
O2673      H2718   0.990       .  S
O2675      H2701   0.966       .  S
O2677      H2702   0.966       .  S
C2678      C2985   1.466       .  S
C2679      C2962   1.462       .  S
C2680      C2974   1.471       .  S
O2681      H2717   0.990       .  S
O2682      C2684   1.283       .  A
O2683      C2684   1.284       .  A
C2684      C2925   1.466       .  S
O2685      H2714   0.990       .  S
Zr2686     O2689   2.434       .  S
O2688      H2705   0.990       .  S
O2688      H2720   0.990       .  S
O2690      H2710   0.990       .  S
O2690      H2719   0.990   1_565  S
O2693      H2712   0.991       .  S
O2693      H2716   0.990       .  S
O2694      H2708   0.990       .  S
O2694      H2715   0.990       .  S
O2695      C2699   1.282       .  A
O2696      C2699   1.284       .  A
O2697      H2707   0.990       .  S
O2698      H2711   0.990       .  S
C2699      C2938   1.474       .  S
C2722      N2723   1.361       .  A
C2722      N2727   1.356   1_565  A
C2722      C2909   1.460       .  S
N2723      C2724   1.357   1_565  A
N2725      C2726   1.355       .  A
C2726      C2913   1.459       .  S
C2728      N2729   1.361       .  A
C2728      N2733   1.347       .  A
C2728      C2902   1.467       .  S
N2729      C2730   1.365       .  A
C2730      N2731   1.365       .  A
C2730      C2897   1.475       .  S
N2731      C2732   1.359       .  A
C2732      N2733   1.347       .  A
C2732      C2893   1.467       .  S
C2734      N2735   1.365       .  A
C2734      N2739   1.361       .  A
C2734      C2886   1.475       .  S
N2735      C2736   1.363       .  A
C2736      N2737   1.356       .  A
C2736      C2889   1.482       .  S
N2737      C2738   1.349       .  A
C2738      N2739   1.356       .  A
C2738      C2881   1.470       .  S
C2740      C2906   1.476       .  S
C2740      C2741   1.401   1_545  A
C2741      C2742   1.400       .  A
C2741      H2746   1.084       .  S
C2742      C2882   1.483       .  S
C2742      C2743   1.407   1_565  A
C2743      H2747   1.080       .  S
C2744      C2894   1.488       .  S
C2744      C2745   1.398       .  A
C2745      H2748   1.084       .  S
Zr2749     O2750   2.443       .  S
Zr2749     O2751   2.441       .  S
Zr2749     O2752   2.444       .  S
Zr2749     O2755   2.446       .  S
Zr2749     O2757   2.382       .  S
Zr2749     O2758   2.391       .  S
Zr2749     O2759   2.409       .  S
Zr2749     O2760   2.402       .  S
O2750      H2806   0.990       .  S
O2750      H2814   0.991       .  S
O2751      C2771   1.282       .  A
O2752      C2773   1.286       .  A
O2753     Zr2763   2.415       .  S
O2753      C2772   1.282       .  A
O2754     Zr2762   2.439       .  S
O2754      C2773   1.284       .  A
O2755      C2772   1.286       .  A
O2756     Zr2764   2.392       .  S
O2756      C2771   1.277       .  A
O2757     Zr2762   2.394       .  S
O2757     Zr2764   2.387       .  S
O2758     Zr2763   2.392       .  S
O2758     Zr2764   2.378       .  S
O2758      H2793   0.965       .  S
O2759     Zr2762   2.401       .  S
O2759     Zr2779   2.377       .  S
O2759      H2796   0.964       .  S
O2760     Zr2763   2.394       .  S
O2760     Zr2779   2.386       .  S
Zr2761     O2786   2.442       .  S
Zr2761     O2780   2.432       .  S
Zr2761     O2788   2.424       .  S
Zr2761     O2776   2.437       .  S
Zr2761     O2767   2.395       .  S
Zr2761     O2768   2.406       .  S
Zr2761     O2769   2.381       .  S
Zr2761     O2770   2.386       .  S
Zr2762     O2781   2.435       .  S
Zr2762     O2774   2.435       .  S
Zr2762     O2775   2.427       .  S
Zr2762     O2768   2.406       .  S
Zr2762     O2769   2.397       .  S
Zr2763     O2765   2.435       .  S
Zr2763     O2787   2.437       .  S
Zr2763     O2789   2.436       .  S
Zr2763     O2767   2.383       .  S
Zr2763     O2770   2.388       .  S
Zr2764     O2790   2.437       .  S
Zr2764     O2791   2.436       .  S
Zr2764     O2766   2.437       .  S
Zr2764     O2767   2.377       .  S
Zr2764     O2768   2.383       .  S
O2765      H2802   0.990       .  S
O2766      H2797   0.990       .  S
O2766      H2811   0.990       .  S
O2768      H2794   0.965       .  S
O2769     Zr2779   2.378       .  S
O2770     Zr2779   2.375       .  S
O2770      H2795   0.965       .  S
C2771      C2910   1.466       .  S
C2772      C2890   1.470       .  S
C2773      C2898   1.476       .  S
O2774      H2810   0.990       .  S
O2775      C2777   1.283       .  A
O2776      C2777   1.283       .  A
C2777      C3078   1.469       .  S
O2778     Zr2779   2.435       .  S
O2778      H2807   0.990       .  S
Zr2779     O2782   2.435       .  S
Zr2779     O2783   2.439       .  S
Zr2779     O2784   2.391       .  S
O2780      C2785   1.280       .  A
O2781      H2798   0.990       .  S
O2781      H2813   0.990       .  S
O2782      H2799   0.990       .  S
O2783      H2803   0.990       .  S
O2783      H2812   0.990       .  S
O2784      C2785   1.277       .  A
C2785      C3089   1.462       .  S
O2786      H2805   0.990       .  S
O2786      H2809   0.990       .  S
O2787      H2801   0.990       .  S
O2787      H2808   0.990       .  S
O2788      C2792   1.283       .  A
O2789      C2792   1.284       .  A
O2790      H2800   0.990       .  S
O2791      H2804   0.991       .  S
C2792      C3065   1.476       .  S
Zr2815     O2816   2.443       .  S
Zr2815     O2817   2.439       .  S
Zr2815     O2818   2.433       .  S
Zr2815     O2821   2.423       .  S
Zr2815     O2823   2.381       .  S
Zr2815     O2824   2.383       .  S
Zr2815     O2825   2.404       .  S
Zr2815     O2826   2.397       .  S
O2816      H2872   0.990       .  S
O2816      H2880   0.991       .  S
O2817      C2837   1.283       .  A
O2819     Zr2829   2.432       .  S
O2819      C2838   1.287       .  A
O2820      C2839   1.284       .  A
O2821      C2838   1.280       .  A
O2822     Zr2830   2.404       .  S
O2822      C2837   1.280       .  A
O2823     Zr2828   2.396       .  S
O2823     Zr2830   2.379       .  S
O2824     Zr2829   2.381       .  S
O2824     Zr2830   2.378       .  S
O2824      H2859   0.966       .  S
O2825     Zr2828   2.401       .  S
O2825     Zr2845   2.390       .  S
O2825      H2862   0.964       .  S
O2826     Zr2829   2.383       .  S
O2826     Zr2845   2.384       .  S
Zr2827     O2852   2.440       .  S
Zr2827     O2846   2.430       .  S
Zr2827     O2854   2.447       .  S
Zr2827     O2842   2.454       .  S
Zr2827     O2833   2.397       .  S
Zr2827     O2834   2.408       .  S
Zr2827     O2835   2.382       .  S
Zr2827     O2836   2.390       .  S
Zr2828     O2847   2.438   1_655  S
Zr2828     O2840   2.434   1_655  S
Zr2828     O2841   2.423       .  S
Zr2828     O2834   2.403       .  S
Zr2828     O2835   2.390       .  S
Zr2829     O2831   2.437       .  S
Zr2829     O2853   2.440       .  S
Zr2829     O2855   2.410       .  S
Zr2829     O2833   2.393       .  S
Zr2829     O2836   2.394       .  S
Zr2830     O2856   2.436       .  S
Zr2830     O2857   2.434       .  S
Zr2830     O2832   2.437       .  S
Zr2830     O2833   2.381       .  S
Zr2830     O2834   2.388       .  S
O2831      H2868   0.990       .  S
O2832      H2863   0.990       .  S
O2832      H2877   0.990       .  S
O2834      H2860   0.966       .  S
O2835     Zr2845   2.375       .  S
O2836     Zr2845   2.379       .  S
O2836      H2861   0.968       .  S
C2837      C2914   1.472       .  S
C2838      C2901   1.474       .  S
C2839      C2885   1.475       .  S
O2840      H2876   0.990       .  S
O2841      C2843   1.283       .  A
O2842      C2843   1.286       .  A
C2843      C2933   1.475       .  S
O2844     Zr2845   2.435       .  S
O2844      H2873   0.990       .  S
Zr2845     O2848   2.436       .  S
Zr2845     O2849   2.440       .  S
Zr2845     O2850   2.401       .  S
O2846      C2851   1.281       .  A
O2848      H2865   0.990       .  S
O2849      H2869   0.990       .  S
O2849      H2878   0.990       .  S
O2850      C2851   1.279       .  A
C2851      C2946   1.468       .  S
O2852      H2871   0.990       .  S
O2852      H2875   0.990       .  S
O2853      H2867   0.990       .  S
O2853      H2874   0.990       .  S
O2854      C2858   1.287       .  A
O2855      C2858   1.280       .  A
O2856      H2866   0.990       .  S
O2857      H2870   0.990       .  S
C2858      C2921   1.466       .  S
C2881      C2882   1.342       .  D
C2881      H2883   1.086       .  S
C2882      H2884   1.087       .  S
C2885      C2886   1.344       .  D
C2885      H2887   1.087       .  S
C2886      H2888   1.086       .  S
C2889      C2890   1.348       .  D
C2889      H2891   1.086       .  S
C2890      H2892   1.087       .  S
C2893      C2894   1.342       .  D
C2893      H2895   1.086       .  S
C2894      H2896   1.086       .  S
C2897      C2898   1.346       .  D
C2897      H2899   1.087       .  S
C2898      H2900   1.086       .  S
C2901      C2902   1.337       .  D
C2901      H2903   1.086       .  S
C2902      H2904   1.088       .  S
C2905      C2906   1.342       .  D
C2909      C2910   1.339       .  D
C2909      H2911   1.087       .  S
C2910      H2912   1.087       .  S
C2913      C2914   1.341       .  D
C2913      H2915   1.087       .  S
C2914      H2916   1.087       .  S
C2917      C2918   1.341       .  D
C2917      H2919   1.087       .  S
C2918      H2920   1.085       .  S
C2921      C2922   1.339       .  D
C2921      H2923   1.088       .  S
C2922      H2924   1.086       .  S
C2925      C2926   1.347       .  D
C2926      H2928   1.087       .  S
C2929      C2930   1.344       .  D
C2929      H2931   1.083       .  S
C2930      H2932   1.088       .  S
C2933      C2934   1.349       .  D
C2933      H2935   1.087   1_655  S
C2934      H2936   1.086       .  S
C2937      C2938   1.341       .  D
C2937      H2939   1.087       .  S
C2938      H2940   1.087       .  S
C2941      C2942   1.339       .  D
C2941      H2943   1.087       .  S
C2942      H2944   1.087       .  S
C2945      C2946   1.340       .  D
C2945      H2947   1.087       .  S
C2946      H2948   1.087       .  S
C2949      C2950   1.341       .  D
C2949      H2951   1.087       .  S
C2950      H2952   1.087       .  S
C2953      C2954   1.346       .  D
C2953      H2955   1.086       .  S
C2954      H2956   1.087       .  S
C2957      C2958   1.341       .  D
C2958      H2960   1.088       .  S
C2961      C2962   1.347       .  D
C2962      H2964   1.087       .  S
C2965      C2966   1.342       .  D
C2965      H2967   1.087       .  S
C2966      H2968   1.087       .  S
C2969      C2970   1.345       .  D
C2969      H2971   1.086       .  S
C2970      H2972   1.087       .  S
C2973      C2974   1.342       .  D
C2973      H2975   1.087       .  S
C2974      H2976   1.087       .  S
C2977      C2978   1.342       .  D
C2977      H2979   1.087       .  S
C2978      H2980   1.087       .  S
C2981      C2982   1.341       .  D
C2981      H2983   1.087       .  S
C2982      H2984   1.087       .  S
C2985      C2986   1.338       .  D
C2985      H2987   1.087       .  S
C2986      H2988   1.087       .  S
C2989      C2990   1.342       .  D
C2989      H2991   1.086       .  S
C2990      H2992   1.087       .  S
C2993      C2994   1.341       .  D
C2993      H2995   1.087       .  S
C2994      H2996   1.087       .  S
C2998      H3000   1.088       .  S
C3001      C3002   1.342       .  D
C3001      H3003   1.087       .  S
C3002      H3004   1.087       .  S
C3005      C3006   1.341       .  D
C3005      H3007   1.087       .  S
C3006      H3008   1.087       .  S
C3009      C3010   1.344       .  D
C3009      H3011   1.086       .  S
C3010      H3012   1.088       .  S
C3013      C3014   1.344       .  D
C3013      H3015   1.085       .  S
C3017      C3018   1.347       .  D
C3017      H3019   1.087       .  S
C3018      H3020   1.087       .  S
C3021      C3022   1.351       .  D
C3021      H3023   1.086       .  S
C3022      H3024   1.086       .  S
C3025      C3026   1.339       .  D
C3025      H3027   1.088       .  S
C3026      H3028   1.087       .  S
C3029      C3030   1.343       .  D
C3029      H3031   1.087       .  S
C3030      H3032   1.087       .  S
C3033      C3034   1.339       .  D
C3033      H3035   1.087       .  S
C3034      H3036   1.087       .  S
C3037      C3038   1.345       .  D
C3037      H3039   1.082       .  S
C3038      H3040   1.087       .  S
C3041      C3042   1.340       .  D
C3041      H3043   1.087       .  S
C3042      H3044   1.088       .  S
C3045      C3046   1.340       .  D
C3045      H3047   1.087       .  S
C3046      H3048   1.087       .  S
C3049      C3050   1.340       .  D
C3049      H3051   1.086       .  S
C3050      H3052   1.087       .  S
C3053      C3054   1.344       .  D
C3053      H3055   1.087       .  S
C3054      H3056   1.087       .  S
C3057      C3058   1.350       .  D
C3058      H3060   1.087       .  S
C3061      C3062   1.340       .  D
C3061      H3063   1.087       .  S
C3062      H3064   1.086       .  S
C3065      C3066   1.343       .  D
C3065      H3067   1.087       .  S
C3066      H3068   1.087       .  S
C3069      C3070   1.347       .  D
C3069      H3071   1.086       .  S
C3073      C3074   1.341       .  D
C3073      H3075   1.087       .  S
C3074      H3076   1.086       .  S
C3077      C3078   1.349       .  D
C3077      H3079   1.086       .  S
C3078      H3080   1.087       .  S
C3081      C3082   1.347       .  D
C3081      H3083   1.087       .  S
C3082      H3084   1.086       .  S
C3085      C3086   1.341   1_455  D
C3085      H3087   1.086       .  S
C3086      H3088   1.087       .  S
C3089      C3090   1.341       .  D
C3089      H3091   1.086       .  S
C3090      H3092   1.088       .  S
C3093      C3094   1.341       .  D
C3093      H3095   1.087       .  S
C3094      H3096   1.087       .  S
