geometry optimzed in LAMMPS
_audit_creation_date              2020-12-01 
_audit_creation_method            'lammps2cif' 
_symmetry_space_group_name_H-M    'P1' 
_symmetry_Int_Tables_number       1 
_symmetry_cell_setting            triclinic 
loop_ 
_symmetry_equiv_pos_as_xyz 
  x,y,z 
_cell_length_a                    48.89724396 
_cell_length_b                    43.96374777304608 
_cell_length_c                    38.69995017693562 
_cell_angle_alpha                 88.60399581918267 
_cell_angle_beta                  100.20420594381645 
_cell_angle_gamma                 90.68604689569675 
loop_ 
_atom_site_label 
_atom_site_type_symbol 
_atom_site_fract_x 
_atom_site_fract_y 
_atom_site_fract_z 
_atom_site_charge 
C1          C  0.97626346  0.03133700  0.39739189     0.29900
C2          C  0.97676895  0.46902040  0.40263626     0.29900
C3          C  0.95488304  0.01509940  0.37061391    -0.06300
C4          C  0.00390675  0.01709937  0.38954334    -0.07000
C5          C  0.97351623  0.01601742  0.43241616    -0.06900
C6          C  0.95419113  0.48389857  0.37548895    -0.06300
C7          C  0.00343318  0.48491534  0.39237656    -0.07000
C8          C  0.97421821  0.48470236  0.43679772    -0.06900
C9          C  0.93904437  0.47411851  0.34425709    -0.32300
N10         N  0.92911339  0.49886762  0.32476942     0.14200
C11         C  0.94045600  0.02420513  0.33838506    -0.32300
H12         H  0.93839220  0.04735078  0.32822151     0.16100
C13         C  0.02502352  0.47667067  0.37541283    -0.31300
N14         N  0.03855347  0.50198688  0.36581961     0.12900
C15         C  0.02546003  0.02637431  0.37211005    -0.31300
C16         C  0.98394568  0.47601039  0.47117375    -0.31600
N17         N  0.98859975  0.00091464  0.48762269     0.13400
H18         H  0.98997802  0.45316131  0.48008799     0.16000
C19         C  0.98323396  0.02560304  0.46606943    -0.31600
H20         H  0.98910313  0.04871243  0.47321909     0.16000
H21         H  0.02938449  0.04911998  0.36309866     0.16000
H22         H  0.93706602  0.45086021  0.33564348     0.16100
H23         H  0.02934421  0.45404477  0.36800006     0.16000
Zr24       Zr  0.87776729  0.19819618  0.33097081     2.17500
O25         O  0.85392913  0.16957840  0.37165582    -0.51400
O26         O  0.87419819  0.15884234  0.28554594    -0.74600
O27         O  0.82704051  0.20210964  0.31131911    -0.81400
O28         O  0.94637322  0.17544808  0.39094784    -0.83100
O29         O  0.82054962  0.24474507  0.27666755    -0.78800
O30         O  0.90518526  0.15592745  0.36350487    -0.90400
O31         O  0.90683272  0.17027063  0.25216806    -0.76400
O32         O  0.87905807  0.22066705  0.27443274    -0.85800
O33         O  0.92481850  0.19809407  0.32289162    -0.85500
O34         O  0.86328562  0.25063521  0.33491016    -0.72300
O35         O  0.90232827  0.22852212  0.37854652    -0.84400
Zr36       Zr  0.93781744  0.29832927  0.31372618     2.26400
Zr37       Zr  0.86422256  0.27199802  0.27751478     2.06300
Zr38       Zr  0.94931083  0.22663411  0.37042720     2.10000
Zr39       Zr  0.92647445  0.21978914  0.26698614     1.78800
O40         O  0.95466153  0.22637105  0.43416828    -0.93200
O41         O  0.90882758  0.22393903  0.20416612    -0.41000
O42         O  0.95359527  0.24730518  0.31365579    -0.77700
O43         O  0.91089259  0.27093460  0.26663272    -0.96400
O44         O  0.89100560  0.30209153  0.32217497    -0.89700
O45         O  0.93619304  0.27813635  0.37081705    -0.92500
C46         C  0.88801529  0.15274812  0.26102691     1.01200
C47         C  0.92979310  0.15326070  0.38228239     1.14200
C48         C  0.81125221  0.22141924  0.29174192     1.05000
O49         O  0.85198699  0.26346633  0.21474111    -0.94700
O50         O  0.87098872  0.32232132  0.25302814    -0.90400
O51         O  0.91513904  0.33831521  0.27451367    -0.83600
C52         C  0.89081926  0.34199771  0.25593229     1.11600
O53         O  0.85629083  0.26816460  0.41641036    -0.96600
Zr54       Zr  0.89006684  0.28194770  0.37916274     1.88900
O55         O  0.94368423  0.33983104  0.35257319    -0.73300
O56         O  0.82562946  0.30673306  0.27697421    -0.52500
O57         O  0.85144921  0.31749648  0.36910855    -0.97200
O58         O  0.90881456  0.27858182  0.44184957    -0.54400
O59         O  0.91569814  0.33103439  0.39289909    -0.73800
C60         C  0.93423408  0.34683193  0.37995592     0.98500
O61         O  0.97002206  0.31856439  0.27735287    -0.62600
O62         O  0.99209838  0.20042833  0.36693589    -0.57400
O63         O  0.98557027  0.29336409  0.34423558    -0.94100
O64         O  0.98961213  0.25763798  0.38821071    -0.92500
O65         O  0.96633989  0.18611353  0.27282210    -0.92900
O66         O  0.96266072  0.23773192  0.23540188    -0.91700
C67         C  0.99976764  0.27817037  0.37019527     1.17400
H68         H  0.93232835  0.17794893  0.32240549     0.33300
H69         H  0.91205652  0.28074490  0.24431872     0.44200
H70         H  0.94844398  0.28853268  0.38909661     0.37700
H71         H  0.84468147  0.25111613  0.33996582     0.34200
H72         H  0.91731715  0.20667602  0.19405542     0.26000
H73         H  0.81154709  0.30123811  0.25635081     0.31900
H74         H  0.86005028  0.33772855  0.37442220     0.37800
H75         H  0.96179725  0.17179580  0.25324096     0.32300
H76         H  0.99854147  0.19145896  0.39065482     0.31200
H77         H  0.97230851  0.21551786  0.44253553     0.32800
H78         H  0.90412511  0.29825660  0.45119120     0.31800
H79         H  0.96058153  0.26011620  0.23383615     0.35800
H80         H  0.95992126  0.31744658  0.25286690     0.28500
H81         H  0.84212789  0.15457533  0.35705572     0.32800
H82         H  0.85287431  0.28702732  0.42840851     0.35600
H83         H  0.98634743  0.18292496  0.35164939     0.28200
H84         H  0.97155492  0.34058267  0.28224544     0.41100
H85         H  0.83368585  0.27329580  0.20756591     0.31200
H86         H  0.88891764  0.21834591  0.20169658     0.38800
H87         H  0.92923073  0.27951338  0.44347743     0.30600
H88         H  0.81726384  0.30063619  0.29763054     0.30700
H89         H  0.84072654  0.18408061  0.37876397     0.31000
C90         C  0.87905452  0.03038430  0.19998468     0.29900
C91         C  0.87965641  0.46704359  0.20535572     0.29900
C92         C  0.85047152  0.01345845  0.19192868    -0.06300
C93         C  0.89449927  0.01561220  0.17216851    -0.07000
C94         C  0.89279396  0.01456112  0.23433811    -0.06900
C95         C  0.85071236  0.48147648  0.19628536    -0.06300
C96         C  0.89557625  0.48303508  0.17858676    -0.07000
C97         C  0.89249204  0.48284450  0.23894562    -0.06900
C98         C  0.82384894  0.47034155  0.19105915    -0.32300
N99         N  0.80618226  0.49415405  0.18604846     0.14200
C100        C  0.82229822  0.02015804  0.18358346    -0.32300
H101        H  0.81303221  0.04237201  0.17844373     0.16100
C102        C  0.91929058  0.47588908  0.16575564    -0.31300
N103        N  0.92985422  0.50112943  0.15190146     0.12900
C104        C  0.91498852  0.02540868  0.15349950    -0.31300
C105        C  0.90702524  0.47359894  0.27109560    -0.31600
N106        N  0.91366075  0.49861354  0.29053404     0.13400
H107        H  0.91279027  0.45054111  0.27933739     0.16000
C108        C  0.90621065  0.02393242  0.26670911    -0.31600
H109        H  0.90874113  0.04712659  0.27541449     0.16000
H110        H  0.91968391  0.04867189  0.14722394     0.16000
H111        H  0.81758905  0.44671051  0.19247711     0.16100
H112        H  0.93038076  0.45478449  0.17064160     0.16000
C113        C  0.02432555  0.03335285  0.11443777     0.29900
C114        C  0.02184001  0.47070637  0.11782688     0.29900
C115        C  0.04852564  0.01718086  0.13797140    -0.06300
C116        C  0.99831422  0.01828564  0.12622379    -0.07000
C117        C  0.02380913  0.01861716  0.07846623    -0.06900
C118        C  0.04651611  0.48564364  0.14122373    -0.06300
C119        C  0.99642317  0.48629745  0.12858194    -0.07000
C120        C  0.02209032  0.48596878  0.08177161    -0.06900
C121        C  0.06819107  0.47603379  0.16677983    -0.32300
N122        N  0.08333630  0.00103193  0.17909945     0.14200
C123        C  0.07054142  0.02620958  0.16312277    -0.32300
H124        H  0.07531717  0.04938067  0.17095236     0.16100
C125        C  0.97055499  0.47722287  0.13477575    -0.31300
N126        N  0.95683432  0.00216517  0.13692929     0.12900
C127        C  0.97236605  0.02737123  0.13234402    -0.31300
C128        C  0.00925295  0.47680703  0.04915259    -0.31600
N129        N  0.00261000  0.00122549  0.52274215     0.13400
H130        H  0.00271434  0.45379481  0.04241562     0.16000
C131        C  0.01126891  0.02768541  0.04491367    -0.31600
H132        H  0.00551613  0.05072867  0.03651116     0.16000
H133        H  0.96501141  0.05043866  0.13248108     0.16000
H134        H  0.07219981  0.45268138  0.17534751     0.16100
H135        H  0.96252910  0.45420801  0.13417039     0.16000
Zr136      Zr  0.11837899  0.20490288  0.18189458     2.17500
O137        O  0.13330894  0.18301012  0.13106791    -0.51400
O138        O  0.13053515  0.16129546  0.22321067    -0.74600
O139        O  0.16854910  0.21594720  0.18132359    -0.81400
O140        O  0.04706401  0.17070880  0.17292790    -0.83100
O141        O  0.17612379  0.26689904  0.18919335    -0.78800
O142        O  0.08823674  0.16299127  0.15535791    -0.90400
O143        O  0.13045923  0.17792115  0.27828723    -0.76400
O144        O  0.14056576  0.23702930  0.22801494    -0.85800
O145        O  0.08956668  0.19926619  0.22568863    -0.85500
O146        O  0.11731966  0.25689660  0.15913482    -0.72300
O147        O  0.07228827  0.22214078  0.15573175    -0.84400
Zr148      Zr  0.06472460  0.29839742  0.22353503     2.26400
Zr149      Zr  0.13662084  0.28948970  0.20709296     2.06300
Zr150      Zr  0.04490959  0.21857778  0.20143702     2.10000
Zr151      Zr  0.11337191  0.22987303  0.27178824     1.78800
O152        O  0.99886100  0.22889796  0.16754190    -0.93200
O153        O  0.16288681  0.23696308  0.29423650    -0.41000
O154        O  0.07256723  0.24850606  0.23956142    -0.77700
O155        O  0.11068215  0.28227598  0.25329936    -0.96400
O156        O  0.09175506  0.30585753  0.17905724    -0.89700
O157        O  0.04237562  0.26892398  0.17608520    -0.92500
C158        C  0.13223289  0.15677156  0.25664207     1.01200
C159        C  0.06309833  0.15494149  0.15772992     1.14200
C160        C  0.18399506  0.24028035  0.18280978     1.05000
O161        O  0.17975754  0.30286061  0.24577549    -0.94700
O162        O  0.13073029  0.33884763  0.23547624    -0.90400
O163        O  0.09177230  0.33422935  0.25967980    -0.83600
C164        C  0.11337846  0.34865028  0.25427832     1.11600
O165        O  0.07602132  0.24634405  0.07968794    -0.96600
Zr166      Zr  0.07165175  0.27346021  0.13264729     1.88900
O167        O  0.04722428  0.33651969  0.17919467    -0.73300
O168        O  0.14900202  0.32507385  0.16297430    -0.52500
O169        O  0.09896181  0.30195534  0.09572351    -0.97200
O170        O  0.02652662  0.26555332  0.09531580    -0.54400
O171        O  0.05148947  0.32381449  0.12425648    -0.73800
C172        C  0.04443286  0.34220913  0.14621739     0.98500
O173        O  0.03346777  0.33786234  0.23784534    -0.62600
O174        O  0.01279333  0.18437154  0.22493082    -0.57400
O175        O  0.02684040  0.27746809  0.24864311    -0.94100
O176        O  0.03689081  0.22933281  0.26060592    -0.92500
O177        O  0.09251691  0.20192398  0.31553050    -0.92900
O178        O  0.11370813  0.25379131  0.32802515    -0.91700
C179        C  0.03149830  0.25569931  0.27084533     1.17400
H180        H  0.08588304  0.17877793  0.23319412     0.33300
H181        H  0.11925906  0.29281615  0.27410852     0.44200
H182        H  0.02377935  0.27643040  0.16779212     0.37700
H183        H  0.12893761  0.25822627  0.14137101     0.34200
H184        H  0.16483270  0.25850218  0.30122951     0.26000
H185        H  0.16705883  0.33388294  0.17411206     0.31900
H186        H  0.10331885  0.32158901  0.10754654     0.37800
H187        H  0.10825738  0.19302903  0.33222436     0.32300
H188        H  0.99986902  0.17678733  0.20427190     0.31200
H189        H  0.99593680  0.21295808  0.14958679     0.32800
H190        H  0.01329978  0.27832183  0.10504905     0.31800
H191        H  0.09837307  0.26864611  0.32353344     0.35800
H192        H  0.01522835  0.32924762  0.24080892     0.28500
H193        H  0.14990197  0.17076721  0.14068980     0.32800
H194        H  0.06735334  0.25959362  0.05977907     0.35600
H195        H  0.02407044  0.16655195  0.23455498     0.28200
H196        H  0.04147945  0.34723075  0.26039467     0.41100
H197        H  0.17429896  0.30730450  0.26855878     0.31200
H198        H  0.16635085  0.22522565  0.31672768     0.38800
H199        H  0.02125693  0.24437723  0.10065229     0.30600
H200        H  0.15362245  0.31214397  0.14425284     0.30700
H201        H  0.14048732  0.20042886  0.11852724     0.31000
C202        C  0.12263023  0.03092554  0.30297630     0.32100
C203        C  0.11802677  0.46865805  0.30580079     0.29900
C204        C  0.14961557  0.01365716  0.32035041    -0.06300
C205        C  0.09948672  0.01680166  0.32165301    -0.07000
C206        C  0.11666839  0.01592712  0.26665285    -0.06900
C207        C  0.14655443  0.48128260  0.32296226    -0.06300
C208        C  0.09726617  0.48532796  0.32404687    -0.07000
C209        C  0.11451328  0.48461744  0.26924844    -0.06900
C210        C  0.17251557  0.46983230  0.32121080    -0.32300
N211        N  0.19121708  0.49262150  0.32185378     0.14200
C212        C  0.17739428  0.01933589  0.31782594    -0.32300
H213        H  0.18596802  0.04091918  0.31082003     0.16100
C214        C  0.07471988  0.47672114  0.33927089    -0.31300
N215        N  0.06221575  0.50203023  0.34865666     0.12900
C216        C  0.07742795  0.02655117  0.33721626    -0.31300
C217        C  0.10664657  0.47587379  0.23482347    -0.31600
N218        N  0.10068746  0.50086978  0.21405084     0.13400
H219        H  0.10338264  0.45307048  0.22551655     0.16000
C220        C  0.10873345  0.02547164  0.23189574    -0.31600
H221        H  0.10610432  0.04862196  0.22218302     0.16000
H222        H  0.07231649  0.04997343  0.34090780     0.16000
H223        H  0.17690051  0.44672154  0.31552769     0.16100
H224        H  0.06787653  0.45355020  0.34267556     0.16000
C225        C  0.51663197  0.28213363  0.09427725     0.29900
C226        C  0.51036370  0.21966983  0.09253567     0.29900
C227        C  0.54180746  0.26315581  0.11109654    -0.06300
C228        C  0.49276854  0.26887426  0.11272893    -0.07000
C229        C  0.50870588  0.26833103  0.05736286    -0.06900
C230        C  0.53858738  0.23180874  0.11076382    -0.06300
C231        C  0.48950030  0.23693198  0.11153991    -0.07000
C232        C  0.50570297  0.23677852  0.05661993    -0.06900
C233        C  0.55744401  0.22022486  0.13890533    -0.32300
N234        N  0.57228625  0.24351881  0.15539702     0.14200
C235        C  0.56297671  0.26964911  0.13849296    -0.32300
H236        H  0.56886551  0.29211552  0.14778194     0.16100
C237        C  0.46489569  0.23021304  0.12369043    -0.31300
N238        N  0.45375960  0.25618102  0.13380961     0.12900
C239        C  0.47009482  0.27997752  0.12615807    -0.31300
C240        C  0.49606271  0.22925216  0.02209930    -0.31600
N241        N  0.49357724  0.25510421  0.00171345     0.13400
H242        H  0.49093843  0.20656281  0.01277490     0.16000
C243        C  0.50061298  0.27915160  0.02308184    -0.31600
H244        H  0.49954017  0.30275659  0.01449253     0.16000
H245        H  0.46533791  0.30364397  0.12889340     0.16000
H246        H  0.55797945  0.19701183  0.14884454     0.16100
H247        H  0.45499947  0.20810571  0.12344815     0.16000
Zr248      Zr  0.62321561  0.45064813  0.15372459     2.17500
O249        O  0.64492030  0.42997015  0.10748964    -0.51400
O250        O  0.63460313  0.40865222  0.19829498    -0.74600
O251        O  0.67313355  0.46265067  0.16770415    -0.81400
O252        O  0.55865822  0.42098531  0.09799800    -0.83100
O253        O  0.67911675  0.00877096  0.18813422    -0.78800
O254        O  0.59824657  0.40361802  0.13114986    -0.90400
O255        O  0.60243599  0.41192517  0.23340805    -0.76400
O256        O  0.62775388  0.47349769  0.20970368    -0.85800
O257        O  0.58000900  0.44160488  0.17228520    -0.85500
O258        O  0.62906108  0.00611836  0.13811457    -0.72300
O259        O  0.58974312  0.47686143  0.10920485    -0.84400
Zr260      Zr  0.55660615  0.03986369  0.17513043     2.26400
Zr261      Zr  0.63464463  0.02993770  0.19431961     2.06300
Zr262      Zr  0.54662173  0.46513932  0.12723265     2.10000
Zr263      Zr  0.58541466  0.46268195  0.22901105     1.78800
O264        O  0.52532152  0.47530234  0.06639365    -0.93200
O265        O  0.62494970  0.46060479  0.27780814    -0.41000
O266        O  0.54920849  0.48464762  0.18582635    -0.77700
O267        O  0.59348163  0.01921933  0.21814371    -0.96400
O268        O  0.59792187  0.05334644  0.15386815    -0.89700
O269        O  0.55146257  0.01933878  0.11763035    -0.92500
C270        C  0.62212362  0.39812718  0.22302657     1.01200
C271        C  0.57431643  0.39934163  0.11155518     1.14200
C272        C  0.68783429  0.48481709  0.18278115     1.05000
O273        O  0.66339546  0.02848771  0.25249882    -0.94700
O274        O  0.62332583  0.07554838  0.22502201    -0.90400
O275        O  0.57639759  0.07989415  0.21399383    -0.83600
C276        C  0.60063482  0.08911067  0.22832022     1.11600
O277        O  0.62100441  0.02419542  0.05240232    -0.96600
Zr278      Zr  0.59289749  0.03191084  0.09760363     1.88900
O279        O  0.54630187  0.08385780  0.13937088    -0.73300
O280        O  0.66194787  0.07110696  0.17372965    -0.52500
O281        O  0.62679858  0.07255089  0.09445834    -0.97200
O282        O  0.56590822  0.02536068  0.03887865    -0.54400
O283        O  0.56342878  0.07923213  0.08926606    -0.73800
C284        C  0.54916054  0.09357724  0.10901311     0.98500
O285        O  0.52350728  0.05577110  0.21092134    -0.62600
O286        O  0.51240457  0.42581312  0.13475705    -0.57400
O287        O  0.51061470  0.02508711  0.14414557    -0.94100
O288        O  0.50019330  0.47618362  0.13281685    -0.92500
O289        O  0.54684148  0.43147561  0.24197606    -0.92900
O290        O  0.57468253  0.47320882  0.28670229    -0.91700
C291        C  0.49750562  0.00130924  0.15159430     1.17400
H292        H  0.57488554  0.42050652  0.17478279     0.33300
H293        H  0.59437090  0.02868906  0.24061764     0.44200
H294        H  0.53645702  0.02758582  0.10042812     0.37700
H295        H  0.64581391  0.00922601  0.12842692     0.34200
H296        H  0.61982184  0.44531926  0.29480985     0.26000
H297        H  0.67901395  0.07231321  0.19176586     0.31900
H298        H  0.61684672  0.09163934  0.09690357     0.37800
H299        H  0.54304432  0.41692917  0.22253899     0.32300
H300        H  0.51140842  0.41199821  0.11474455     0.31200
H301        H  0.51051013  0.45965180  0.06138124     0.32800
H302        H  0.54690221  0.03210769  0.04026019     0.31800
H303        H  0.58652017  0.99873967  0.28900719     0.35800
H304        H  0.53415526  0.05895252  0.23479805     0.28500
H305        H  0.66100724  0.41822125  0.11992973     0.32800
H306        H  0.61765342  0.04212109  0.03625338     0.35600
H307        H  0.52096022  0.41372600  0.15567838     0.28200
H308        H  0.51747461  0.07627088  0.20167787     0.41100
H309        H  0.67395295  0.04790953  0.25402001     0.31200
H310        H  0.64045323  0.45093722  0.26895166     0.38800
H311        H  0.56420304  0.00305280  0.03607504     0.30600
H312        H  0.66830495  0.06308195  0.15284706     0.30700
H313        H  0.65316597  0.44781180  0.09693605     0.31000
C314        C  0.62514439  0.27242240  0.27445339     0.29900
C315        C  0.61733770  0.21034551  0.27927390     0.29900
C316        C  0.65161927  0.25323172  0.28637605    -0.06300
C317        C  0.60558471  0.26165166  0.30050661    -0.07000
C318        C  0.61116571  0.25670213  0.24104297    -0.06900
C319        C  0.64784802  0.22163424  0.28780255    -0.06300
C320        C  0.60216628  0.22985769  0.30304681    -0.07000
C321        C  0.60799775  0.22548274  0.24274590    -0.06900
C322        C  0.67345203  0.20928628  0.28538561    -0.32300
N323        N  0.69280850  0.23175947  0.28626412     0.14200
C324        C  0.67961657  0.25872462  0.28679012    -0.32300
H325        H  0.68928335  0.28088563  0.28584953     0.16100
C326        C  0.57924788  0.22436550  0.31896659    -0.31300
N327        N  0.56809666  0.25126441  0.32619383     0.12900
C328        C  0.58336365  0.27405103  0.31399549    -0.31300
C329        C  0.59478644  0.21670865  0.20971450    -0.31600
N330        N  0.58890926  0.24206791  0.18915933     0.13400
H331        H  0.58899601  0.19386291  0.20155339     0.16000
C332        C  0.59853966  0.26655180  0.20827191    -0.31600
H333        H  0.59585807  0.29002692  0.19960798     0.16000
H334        H  0.57723664  0.29761901  0.31233462     0.16000
H335        H  0.67741796  0.18600527  0.27984186     0.16100
H336        H  0.57018314  0.20219086  0.32231742     0.16000
C337        C  0.48220840  0.29023614  0.37483234     0.29900
C338        C  0.48028915  0.22748190  0.37695282     0.29900
C339        C  0.45609304  0.27513303  0.35409651    -0.06300
C340        C  0.50624773  0.27398763  0.36041633    -0.07000
C341        C  0.48464458  0.27473334  0.41179966    -0.06900
C342        C  0.45454659  0.24384927  0.35605211    -0.06300
C343        C  0.50460138  0.24211407  0.36150968    -0.07000
C344        C  0.48273616  0.24292997  0.41269623    -0.06900
C345        C  0.43054401  0.23539716  0.33350567    -0.32300
N346        N  0.41900821  0.26036450  0.31582989     0.14200
C347        C  0.43422296  0.28494416  0.32858792    -0.32300
H348        H  0.43112036  0.30791941  0.31816424     0.16100
C349        C  0.52710650  0.23084510  0.34892567    -0.31300
N350        N  0.54306870  0.25440239  0.34017614     0.12900
C351        C  0.53088673  0.28083612  0.34769905    -0.31300
C352        C  0.48352242  0.23420224  0.44729872    -0.31600
N353        N  0.48864265  0.25899212  0.46766311     0.13400
H354        H  0.48032557  0.21164453  0.45724227     0.16000
C355        C  0.48946790  0.28393374  0.44637450    -0.31600
H356        H  0.49382407  0.30690737  0.45524376     0.16000
H357        H  0.53960154  0.30328183  0.34496204     0.16000
H358        H  0.42288419  0.21257552  0.32840265     0.16100
H359        H  0.53151649  0.20699976  0.34683910     0.16000
Zr360      Zr  0.37515429  0.45772031  0.31834652     2.17500
O361        O  0.36084147  0.42968985  0.36738214    -0.51400
O362        O  0.36627105  0.41646275  0.27435570    -0.74600
O363        O  0.32427589  0.46259766  0.31781816    -0.81400
O364        O  0.45150872  0.43154278  0.34060872    -0.83100
O365        O  0.31254302  0.01085237  0.29933718    -0.78800
O366        O  0.40727950  0.41516260  0.34118868    -0.90400
O367        O  0.37680635  0.43391973  0.22236674    -0.76400
O368        O  0.35618432  0.48721571  0.26704164    -0.85800
O369        O  0.40931108  0.45848021  0.28196228    -0.85500
O370        O  0.36785757  0.00963773  0.33626395    -0.72300
O371        O  0.41549906  0.48248807  0.35239869    -0.84400
Zr372      Zr  0.42447960  0.06104762  0.28023544     2.26400
Zr373      Zr  0.35097700  0.03816082  0.28295376     2.06300
Zr374      Zr  0.44970819  0.48144536  0.31512814     2.10000
Zr375      Zr  0.38983548  0.48606212  0.22984100     1.78800
O376        O  0.48667458  0.47684016  0.36609224    -0.93200
O377        O  0.34485222  0.48606146  0.19067557    -0.41000
O378        O  0.43236359  0.00987909  0.26455604    -0.77700
O379        O  0.38482609  0.03742535  0.24529273    -0.96400
O380        O  0.38998730  0.06391328  0.31613409    -0.89700
O381        O  0.44184770  0.03436397  0.33403385    -0.92500
C382        C  0.36978697  0.41286683  0.24227057     1.01200
C383        C  0.43395280  0.41112326  0.34599210     1.14200
C384        C  0.30694538  0.48503509  0.31253566     1.05000
O385        O  0.31172894  0.03846444  0.23447408    -0.94700
O386        O  0.34932575  0.08662195  0.25071905    -0.90400
O387        O  0.39418047  0.09798841  0.24760182    -0.83600
C388        C  0.36826687  0.10349517  0.24087408     1.11600
O389        O  0.39440932  0.01875669  0.42451374    -0.96600
Zr390      Zr  0.40702458  0.03612269  0.36906370     1.88900
O391        O  0.43696933  0.09819735  0.32290333    -0.73300
O392        O  0.32914361  0.07395826  0.31660031    -0.52500
O393        O  0.36933723  0.06509310  0.38553733    -0.97200
O394        O  0.44533633  0.02664137  0.41760874    -0.54400
O395        O  0.42988338  0.08687036  0.37751171    -0.73800
C396        C  0.43825831  0.10493100  0.35473249     0.98500
O397        O  0.44523910  0.09778291  0.24296350    -0.62600
O398        O  0.47232377  0.44798122  0.27955648    -0.57400
O399        O  0.47421375  0.06129531  0.28524926    -0.94100
O400        O  0.48717537  0.51514866  0.30517447    -0.92500
O401        O  0.42502905  0.46432682  0.20069672    -0.92900
O402        O  0.39446790  0.50950878  0.17344313    -0.91700
C403        C  0.48500376  0.03540997  0.28411353     1.17400
H404        H  0.41424276  0.43817540  0.27676686     0.33300
H405        H  0.37847550  0.04826485  0.22345186     0.44200
H406        H  0.45856143  0.04381135  0.34657777     0.37700
H407        H  0.35380932  0.00889760  0.35093902     0.34200
H408        H  0.34792095  0.47482065  0.16984806     0.26000
H409        H  0.31308636  0.08204474  0.29980010     0.31900
H410        H  0.37703624  0.08582912  0.39006167     0.37800
H411        H  0.42819801  0.44357426  0.21101515     0.32300
H412        H  0.48594407  0.43624122  0.29659402     0.31200
H413        H  0.50116019  0.46469660  0.35800306     0.32800
H414        H  0.46012868  0.04124377  0.41381460     0.31800
H415        H  0.39212344  0.02918256  0.17360647     0.35800
H416        H  0.43381466  0.09825252  0.21907913     0.28500
H417        H  0.34558274  0.41603738  0.35665917     0.32800
H418        H  0.39778016  0.03641192  0.44018080     0.35600
H419        H  0.45839449  0.43264137  0.26958564     0.28200
H420        H  0.44335997  0.11822841  0.25228452     0.41100
H421        H  0.32014070  0.04092462  0.21310055     0.31200
H422        H  0.33280927  0.47234491  0.20219776     0.38800
H423        H  0.45258637  0.00651129  0.41289233     0.30600
H424        H  0.32073946  0.06134839  0.33357034     0.30700
H425        H  0.35182216  0.44490684  0.38001308     0.31000
C426        C  0.37205979  0.29001289  0.19347681     0.29900
C427        C  0.37211598  0.22757275  0.19555446     0.29900
C428        C  0.34352530  0.27413235  0.17911382    -0.06300
C429        C  0.39305068  0.27435199  0.17284953    -0.07000
C430        C  0.37931207  0.27489616  0.23016248    -0.06900
C431        C  0.34460921  0.24239924  0.17884398    -0.06300
C432        C  0.39320795  0.24240634  0.17466407    -0.07000
C433        C  0.38015418  0.24358598  0.23091824    -0.06900
C434        C  0.31793139  0.23084154  0.17483433    -0.32300
N435        N  0.30005916  0.25381208  0.17512108     0.14200
C436        C  0.31538647  0.27999653  0.17966335    -0.32300
H437        H  0.30695582  0.30094257  0.18706665     0.16100
C438        C  0.41612990  0.23298997  0.16122249    -0.31300
N439        N  0.42916654  0.25755023  0.14910056     0.12900
C440        C  0.41546710  0.28298552  0.15643481    -0.31300
C441        C  0.39372455  0.23465099  0.26388508    -0.31600
N442        N  0.39991747  0.25966811  0.28375699     0.13400
H443        H  0.40053840  0.21180862  0.27157627     0.16000
C444        C  0.39057563  0.28435959  0.26363655    -0.31600
H445        H  0.39368220  0.30754551  0.27209570     0.16000
H446        H  0.42184066  0.30608622  0.15152402     0.16000
H447        H  0.31215960  0.20701041  0.17540160     0.16100
H448        H  0.42380948  0.21004347  0.16227338     0.16000
C449        C  0.39496893  0.36730184  0.23103669    -0.26400
C450        C  0.36935021  0.38219308  0.22742963    -0.14500
C451        C  0.34675040  0.37089090  0.20298956     0.36200
C452        C  0.34936315  0.34285128  0.18708585    -0.25800
C453        C  0.37336969  0.32495843  0.19637884    -0.15100
C454        C  0.39738571  0.33937488  0.21503245     0.37300
N455        N  0.42402400  0.32509787  0.21931913    -0.89300
H456        H  0.41334926  0.37746728  0.24645388     0.18400
H457        H  0.33230104  0.33516972  0.16765662     0.18400
N458        N  0.32105788  0.38712458  0.19348513    -0.88400
H459        H  0.43218237  0.32306439  0.24611815     0.35700
H460        H  0.43729301  0.33958265  0.20806382     0.40800
H461        H  0.32140206  0.40737254  0.20708979     0.40500
H462        H  0.30537968  0.37356416  0.20119031     0.35300
C463        C  0.37194358  0.13948533  0.19190269    -0.26400
C464        C  0.36110789  0.13239875  0.22246569    -0.14500
C465        C  0.34972688  0.15547242  0.23958325     0.36200
C466        C  0.35284816  0.18540287  0.22887763    -0.25800
C467        C  0.36754561  0.19341132  0.20144104    -0.15100
C468        C  0.37349378  0.16969607  0.17979217     0.37300
N469        N  0.37776557  0.17466625  0.14437179    -0.89300
H470        H  0.37921941  0.12136301  0.17740804     0.18400
H471        H  0.34437460  0.20282553  0.24318176     0.18400
N472        N  0.33664958  0.14940320  0.26941209    -0.88400
H473        H  0.39819129  0.16899543  0.14285927     0.35700
H474        H  0.37367166  0.19704385  0.13569289     0.40800
H475        H  0.31984137  0.13465925  0.26182949     0.40500
H476        H  0.35090072  0.13868520  0.28915280     0.35300
C477        C  0.45787391  0.33609076  0.39373843    -0.26400
C478        C  0.47649274  0.32482057  0.37271034    -0.14500
C479        C  0.47936472  0.34240021  0.34244639     0.36200
C480        C  0.46518261  0.37008710  0.33498604    -0.25800
C481        C  0.44665590  0.38079179  0.35585352    -0.15100
C482        C  0.44324168  0.36355290  0.38599575     0.37300
N483        N  0.42540732  0.37295322  0.40951708    -0.89300
H484        H  0.45269910  0.32243794  0.41526126     0.18400
H485        H  0.46788643  0.38287053  0.31150452     0.18400
N486        N  0.49470388  0.33119327  0.31731448    -0.88400
H487        H  0.40906134  0.35721015  0.40792874     0.35700
H488        H  0.41659301  0.39415296  0.40231555     0.40800
H489        H  0.50993532  0.34733865  0.31391060     0.40500
H490        H  0.48114270  0.32910819  0.29334045     0.35300
C491        C  0.46796473  0.18261782  0.33955992    -0.26400
C492        C  0.47813521  0.19263252  0.37334010    -0.14500
C493        C  0.48175711  0.17022591  0.40085408     0.36200
C494        C  0.46720084  0.14213561  0.39567566    -0.25800
C495        C  0.45083077  0.13559357  0.36296123    -0.15100
C496        C  0.45104385  0.15687772  0.33470158     0.37300
N497        N  0.43294341  0.15317860  0.30136480    -0.89300
H498        H  0.46871412  0.19787904  0.31730522     0.18400
H499        H  0.47003500  0.12486415  0.41641780     0.18400
N500        N  0.50329636  0.17295519  0.43110760    -0.88400
H501        H  0.43578101  0.17068642  0.28353544     0.35700
H502        H  0.41247633  0.15475418  0.30560668     0.40800
H503        H  0.51611349  0.19153645  0.42749296     0.40500
H504        H  0.51621622  0.15405231  0.43210139     0.35300
C505        C  0.46554795  0.03379824  0.22037727    -0.26400
C506        C  0.48407694  0.02209555  0.24959679    -0.14500
C507        C  0.50159526  0.99810144  0.24501537     0.36200
C508        C  0.49949249  0.98581233  0.21196150    -0.25800
C509        C  0.48505748  0.00158892  0.18256802    -0.15100
C510        C  0.46711069  0.02509097  0.18656126     0.37300
N511        N  0.45258195  0.04153443  0.15638606    -0.89300
H512        H  0.45025116  0.05004342  0.22359185     0.18400
H513        H  0.51293985  0.96724052  0.20856998     0.18400
N514        N  0.52442243  0.98929444  0.27171613    -0.88400
H515        H  0.44032193  0.05858088  0.16405661     0.35700
H516        H  0.43914223  0.02629551  0.14136582     0.40800
H517        H  0.51751204  0.98035343  0.29378931     0.40500
H518        H  0.53600589  0.00893236  0.27925162     0.35300
C519        C  0.64198094  0.34552703  0.22414267    -0.26400
C520        C  0.62921608  0.36782567  0.24072051    -0.14500
C521        C  0.62064835  0.35980466  0.27305974     0.36200
C522        C  0.62180078  0.32945192  0.28546228    -0.25800
C523        C  0.63086950  0.30627503  0.26625960    -0.15100
C524        C  0.64340977  0.31518481  0.23682968     0.37300
N525        N  0.65628054  0.29325590  0.21824059    -0.89300
H526        H  0.64965602  0.35119381  0.20015895     0.18400
H527        H  0.61519568  0.32426194  0.31008892     0.18400
N528        N  0.61020297  0.38233003  0.29338095    -0.88400
H529        H  0.67636525  0.30110772  0.21739025     0.35700
H530        H  0.64580499  0.29313567  0.19223644     0.40800
H531        H  0.62258612  0.38232157  0.31834832     0.40500
H532        H  0.59001355  0.37599103  0.29619015     0.35300
C533        C  0.58428717  0.16700351  0.26151095    -0.26400
C534        C  0.61057278  0.17592816  0.27925277    -0.14500
C535        C  0.62979590  0.15231209  0.29094681     0.36200
C536        C  0.62616904  0.12393541  0.27436850    -0.25800
C537        C  0.60223879  0.11753104  0.24938443    -0.15100
C538        C  0.58012292  0.13886552  0.24540178     0.37300
N539        N  0.55365255  0.13387063  0.22363063    -0.89300
H540        H  0.56774258  0.18356715  0.25598375     0.18400
H541        H  0.64185131  0.10661646  0.28164350     0.18400
N542        N  0.65001090  0.15451469  0.32264313    -0.88400
H543        H  0.54408269  0.11510317  0.23362958     0.35700
H544        H  0.55641425  0.13021382  0.19789231     0.40800
H545        H  0.64957298  0.17581025  0.33389316     0.40500
H546        H  0.66982742  0.15047040  0.31731854     0.35300
C547        C  0.54221229  0.32652590  0.07077376    -0.26400
C548        C  0.52615568  0.31588486  0.09586622    -0.14500
C549        C  0.52896060  0.33228030  0.12748320     0.36200
C550        C  0.54665803  0.35792575  0.13274858    -0.25800
C551        C  0.56175169  0.36852078  0.10716337    -0.15100
C552        C  0.55917291  0.35271123  0.07553199     0.37300
N553        N  0.57380726  0.36211713  0.04789666    -0.89300
H554        H  0.54323780  0.31346008  0.04780604     0.18400
H555        H  0.54842068  0.36988406  0.15719978     0.18400
N556        N  0.51543181  0.32196649  0.15554063    -0.88400
H557        H  0.58738210  0.34463165  0.04467910     0.35700
H558        H  0.58620647  0.38129464  0.05469154     0.40800
H559        H  0.53061903  0.31750198  0.17766608     0.40500
H560        H  0.50304397  0.33964952  0.16149692     0.35300
C561        C  0.52822393  0.17232011  0.06697798    -0.26400
C562        C  0.51272072  0.18453408  0.09124321    -0.14500
C563        C  0.50824935  0.16513829  0.11950155     0.36200
C564        C  0.51789657  0.13503807  0.12170397    -0.25800
C565        C  0.53472160  0.12357669  0.09879221    -0.15100
C566        C  0.53892267  0.14231557  0.07018230     0.37300
N567        N  0.55505536  0.13158352  0.04540381    -0.89300
H568        H  0.53404532  0.18701179  0.04664804     0.18400
H569        H  0.51375413  0.12110723  0.14367478     0.18400
N570        N  0.49621738  0.17640881  0.14791190    -0.88400
H571        H  0.55686220  0.14844624  0.02640306     0.35700
H572        H  0.54397680  0.11361779  0.03209351     0.40800
H573        H  0.51033313  0.19171508  0.16175000     0.40500
H574        H  0.49333648  0.15899461  0.16583629     0.35300
C575        C  0.26924586  0.00427953  0.33776158    -0.26400
C576        C  0.27817052  0.48196992  0.31970698    -0.14500
C577        C  0.25871468  0.46107692  0.30231384     0.36200
C578        C  0.23015084  0.46464882  0.30347715    -0.25800
C579        C  0.22062300  0.48895795  0.32136958    -0.15100
C580        C  0.24096527  0.00837546  0.33838154     0.37300
N581        N  0.23263398  0.03197441  0.35908083    -0.89300
H582        H  0.28418686  0.02001994  0.35188198     0.18400
H583        H  0.21525202  0.44907648  0.28916282     0.18400
N584        N  0.26780124  0.43718544  0.28242702    -0.88400
H585        H  0.23988225  0.05274048  0.35032965     0.35700
H586        H  0.24232391  0.02826761  0.38514528     0.40800
H587        H  0.27570336  0.44733032  0.26150044     0.40500
H588        H  0.25093677  0.42364760  0.27136081     0.35300
C589        C  0.26204854  0.22688845  0.19834442    -0.26400
C590        C  0.27074733  0.24960744  0.17613945    -0.14500
C591        C  0.25022095  0.26631503  0.15340866     0.36200
C592        C  0.22201065  0.26099960  0.15428414    -0.25800
C593        C  0.21330823  0.23915154  0.17733235    -0.15100
C594        C  0.23371489  0.22178768  0.19944076     0.37300
N595        N  0.22635191  0.20003374  0.22445512    -0.89300
H596        H  0.27747437  0.21359489  0.21569996     0.18400
H597        H  0.20664753  0.27482071  0.13746305     0.18400
N598        N  0.25734834  0.28838935  0.12861167    -0.88400
H599        H  0.21321703  0.18369591  0.21087420     0.35700
H600        H  0.21540899  0.21123132  0.24120413     0.40800
H601        H  0.26982550  0.27794660  0.11310283     0.40500
H602        H  0.26863621  0.30601099  0.14222991     0.35300
C603        C  0.09117549  0.42473599  0.27783916    -0.26400
C604        C  0.11332718  0.43417190  0.30342297    -0.14500
C605        C  0.13241403  0.41158497  0.31914303     0.36200
C606        C  0.13373922  0.38406410  0.30156936    -0.25800
C607        C  0.11597687  0.37891553  0.26950463    -0.15100
C608        C  0.09429421  0.39964479  0.25788521     0.37300
N609        N  0.07656941  0.39725248  0.22432313    -0.89300
H610        H  0.07427043  0.44022612  0.26829840     0.18400
H611        H  0.14778967  0.36636420  0.31352310     0.18400
N612        N  0.14718590  0.41381815  0.35457662    -0.88400
H613        H  0.06550801  0.37694081  0.22347159     0.35700
H614        H  0.08906303  0.39690123  0.20502562     0.40800
H615        H  0.14306353  0.43434946  0.36557744     0.40500
H616        H  0.16851220  0.41222576  0.35482936     0.35300
C617        C  0.14927354  0.11413630  0.29988156    -0.26400
C618        C  0.13049892  0.12505421  0.27052876    -0.14500
C619        C  0.10602632  0.10805724  0.25946136     0.36200
C620        C  0.10189586  0.07989491  0.27554345    -0.25800
C621        C  0.12325631  0.06601765  0.29951366    -0.15100
C622        C  0.14560718  0.08494917  0.31498972     0.37300
N623        N  0.16318609  0.07561027  0.34715108    -0.89300
H624        H  0.16652964  0.12849505  0.31125103     0.18400
H625        H  0.08292305  0.06730906  0.26624920     0.18400
N626        N  0.08497356  0.11944718  0.23190155    -0.88400
H627        H  0.17810499  0.09235787  0.35544476     0.35700
H628        H  0.15072672  0.07343909  0.36642804     0.40800
H629        H  0.06662151  0.12139166  0.24197779     0.40500
H630        H  0.08166233  0.10338251  0.21207771     0.35300
C631        C  0.04649921  0.38857312  0.10869025    -0.26400
C632        C  0.03417183  0.37287178  0.13393767    -0.14500
C633        C  0.01575709  0.38843590  0.15139327     0.36200
C634        C  0.01181495  0.41974538  0.14527402    -0.25800
C635        C  0.02398245  0.43591344  0.12000102    -0.15100
C636        C  0.04223024  0.41994370  0.10208584     0.37300
N637        N  0.05769649  0.43575910  0.07875897    -0.89300
H638        H  0.06122264  0.37683264  0.09596167     0.18400
H639        H  0.00054231  0.43163426  0.16224292     0.18400
N640        N  0.00171949  0.37254467  0.17617419    -0.88400
H641        H  0.06946674  0.42060655  0.06712824     0.35700
H642        H  0.07186463  0.45028431  0.09383306     0.40800
H643        H  0.98853784  0.35637146  0.16233399     0.40500
H644        H  0.98900792  0.38728901  0.18691280     0.35300
C645        C  0.01911787  0.08245765  0.14444750    -0.26400
C646        C  0.02922842  0.06779443  0.11760263    -0.14500
C647        C  0.05078757  0.08270501  0.10321144     0.36200
C648        C  0.06131611  0.11124940  0.11580547    -0.25800
C649        C  0.05110441  0.12542826  0.14302578    -0.15100
C650        C  0.02931498  0.11067616  0.15683461     0.37300
N651        N  0.01830823  0.12316588  0.18527233    -0.89300
H652        H  0.00494801  0.07098813  0.15883247     0.18400
H653        H  0.07802363  0.12193064  0.10479982     0.18400
N654        N  0.06337961  0.06808560  0.07738821    -0.88400
H655        H  0.02130355  0.10746147  0.20630549     0.35700
H656        H  0.99690007  0.12588835  0.17711630     0.40800
H657        H  0.08454017  0.06546093  0.08743273     0.40500
H658        H  0.06144241  0.08242133  0.05515070     0.35300
C659        C  0.76148072  0.97428134  0.15442809    -0.26400
C660        C  0.77659344  0.49196462  0.18502654    -0.14500
C661        C  0.76411776  0.50480578  0.21147439     0.36200
C662        C  0.73554205  0.50120085  0.21072008    -0.25800
C663        C  0.71853291  0.48531371  0.18377770    -0.15100
C664        C  0.73247862  0.97097783  0.15257427     0.37300
N665        N  0.71615720  0.95483440  0.12414150    -0.89300
H666        H  0.77150416  0.96422623  0.13469260     0.18400
H667        H  0.72652548  0.51120074  0.23139858     0.18400
N668        N  0.78007447  0.52097506  0.23998778    -0.88400
H669        H  0.72889708  0.94594261  0.10788500     0.35700
H670        H  0.70322184  0.97063731  0.10878971     0.40800
H671        H  0.78852461  0.54051901  0.23001649     0.40500
H672        H  0.79625149  0.50703611  0.25233605     0.35300
C673        C  0.76399280  0.23698436  0.26122668    -0.26400
C674        C  0.78015200  0.21897146  0.28763801    -0.14500
C675        C  0.76635320  0.20304141  0.31195057     0.36200
C676        C  0.73749616  0.20724895  0.31052755    -0.25800
C677        C  0.72204136  0.22715710  0.28569170    -0.15100
C678        C  0.73558312  0.24142989  0.26021433     0.37300
N679        N  0.72120777  0.26078412  0.23295047    -0.89300
H680        H  0.77373254  0.24900269  0.24176922     0.18400
H681        H  0.72706154  0.19561487  0.32956534     0.18400
N682        N  0.78163649  0.18360865  0.33877942    -0.88400
H683        H  0.71592986  0.28056733  0.24441006     0.35700
H684        H  0.70325975  0.24957133  0.22064154     0.40800
H685        H  0.78840933  0.16502209  0.32630177     0.40500
H686        H  0.76862325  0.17474031  0.35532819     0.35300
C687        C  0.04029883  0.25025683  0.37041670    -0.26400
C688        C  0.03036080  0.27960242  0.37434331    -0.14500
C689        C  0.03953844  0.30196627  0.35273437     0.36200
C690        C  0.04056621  0.29369656  0.31827254    -0.25800
C691        C  0.03650707  0.26294425  0.30851264    -0.15100
C692        C  0.03929294  0.24050688  0.33573933     0.37300
N693        N  0.03971012  0.20871745  0.32826764    -0.89300
H694        H  0.04020791  0.23343328  0.39131928     0.18400
H695        H  0.04295304  0.31122026  0.29929443     0.18400
N696        N  0.03970731  0.33328377  0.36205915    -0.88400
H697        H  0.02024197  0.20279492  0.31406383     0.35700
H698        H  0.04272853  0.19562679  0.35152503     0.40800
H699        H  0.02429200  0.34456263  0.34432033     0.40500
H700        H  0.05888479  0.34267068  0.35894621     0.35300
C701        C  0.90634957  0.11110401  0.22936903    -0.26400
C702        C  0.88365246  0.12326333  0.24190542    -0.14500
C703        C  0.85859336  0.10649857  0.23649265     0.36200
C704        C  0.85717186  0.07829138  0.21977133    -0.25800
C705        C  0.88000846  0.06526457  0.20734454    -0.15100
C706        C  0.90546566  0.08252702  0.21384086     0.37300
N707        N  0.93215451  0.07051003  0.21126798    -0.89300
H708        H  0.92621282  0.12289913  0.23433480     0.18400
H709        H  0.83854052  0.06545940  0.22052192     0.18400
N710        N  0.83425028  0.11698877  0.24826650    -0.88400
H711        H  0.93851841  0.07913908  0.18856614     0.35700
H712        H  0.93333545  0.04695487  0.21377706     0.40800
H713        H  0.82948274  0.13871056  0.23743390     0.40500
H714        H  0.83840009  0.11821720  0.27562155     0.35300
C715        C  0.89274873  0.37981584  0.20706170    -0.26400
C716        C  0.88442479  0.37197720  0.23898912    -0.14500
C717        C  0.86993921  0.39314817  0.25524300     0.36200
C718        C  0.86663517  0.42275786  0.24122993    -0.25800
C719        C  0.87839682  0.43236246  0.21190365    -0.15100
C720        C  0.88895578  0.40960276  0.19266652     0.37300
N721        N  0.89375084  0.41550928  0.15775094    -0.89300
H722        H  0.90210157  0.36274993  0.19320471     0.18400
H723        H  0.85641546  0.43922892  0.25489577     0.18400
N724        N  0.85987391  0.38490512  0.28698004    -0.88400
H725        H  0.87985336  0.40203252  0.14084061     0.35700
H726        H  0.91373986  0.40802378  0.15633503     0.40800
H727        H  0.84423882  0.36852244  0.28064847     0.40500
H728        H  0.85055607  0.40351630  0.29642742     0.35300
C729        C  0.93879121  0.06887690  0.40189439    -0.26400
C730        C  0.96691601  0.06447894  0.39813245    -0.14500
C731        C  0.98352653  0.09037694  0.39553959     0.36200
C732        C  0.97088816  0.11915178  0.39155243    -0.25800
C733        C  0.94212707  0.12284363  0.39128298    -0.15100
C734        C  0.92630052  0.09747108  0.39790937     0.37300
N735        N  0.89768820  0.10057897  0.40086929    -0.89300
H736        H  0.92590021  0.04947796  0.40647263     0.18400
H737        H  0.98365910  0.13876534  0.38791303     0.18400
N738        N  0.01298631  0.08781985  0.39806255    -0.88400
H739        H  0.89525531  0.09229266  0.42571263     0.35700
H740        H  0.88579525  0.08686643  0.38209061     0.40800
H741        H  0.02099023  0.07919418  0.42319200     0.40500
H742        H  0.02215915  0.10922143  0.39587125     0.35300
C743        C  0.97516682  0.38087698  0.39734700    -0.26400
C744        C  0.94652545  0.37520890  0.39640252    -0.14500
C745        C  0.93005851  0.39885527  0.40492910     0.36200
C746        C  0.94165465  0.42797030  0.41022324    -0.25800
C747        C  0.96927972  0.43491203  0.40560052    -0.15100
C748        C  0.98684573  0.41030343  0.40277705     0.37300
N749        N  0.01624241  0.41478373  0.40624590    -0.89300
H750        H  0.98832214  0.36235248  0.39249002     0.18400
H751        H  0.92807355  0.44610944  0.41502952     0.18400
N752        N  0.90107688  0.39465061  0.40569223    -0.88400
H753        H  0.02617868  0.39419265  0.40394469     0.35700
H754        H  0.02352704  0.42238231  0.43163985     0.40800
H755        H  0.89896785  0.37774007  0.42451676     0.40500
H756        H  0.89117712  0.38729791  0.38109225     0.35300
C757        C  0.97754789  0.03196346  0.89872991     0.29900
C758        C  0.97901289  0.46826507  0.90437323     0.29900
C759        C  0.95595225  0.01517703  0.87259422    -0.06300
C760        C  0.00504209  0.01778710  0.89020631    -0.07000
C761        C  0.97558618  0.01693048  0.93430377    -0.06900
C762        C  0.95661620  0.48309179  0.87676476    -0.06300
C763        C  0.00578648  0.48418568  0.89472435    -0.07000
C764        C  0.97599730  0.48399119  0.93840597    -0.06900
C765        C  0.94175145  0.47345943  0.84520270    -0.32300
N766        N  0.93188787  0.49833208  0.82581002     0.14200
C767        C  0.94026510  0.02391001  0.84090723    -0.32300
H768        H  0.93766258  0.04696798  0.83057443     0.16100
C769        C  0.02701839  0.47583204  0.87727744    -0.31300
N770        N  0.04046242  0.50103666  0.86737710     0.12900
C771        C  0.02691129  0.02700380  0.87325580    -0.31300
C772        C  0.98538548  0.47557362  0.97298144    -0.31600
N773        N  0.99098725  0.00221409  0.98979899     0.13400
H774        H  0.99155291  0.45283576  0.98219657     0.16000
C775        C  0.98534322  0.02678143  0.96798355    -0.31600
H776        H  0.99069157  0.05002599  0.97507297     0.16000
H777        H  0.03103796  0.04968879  0.86427746     0.16000
H778        H  0.93988770  0.45026794  0.83634273     0.16100
H779        H  0.03096463  0.45322098  0.86947680     0.16000
Zr780      Zr  0.87694870  0.19941079  0.82997078     2.17500
O781        O  0.85344188  0.17270135  0.87242783    -0.51400
O782        O  0.87350299  0.15945010  0.78499848    -0.74600
O783        O  0.82617554  0.20278675  0.80967420    -0.81400
O784        O  0.94592985  0.17555806  0.88748983    -0.83100
O785        O  0.81906803  0.24683903  0.77763905    -0.78800
O786        O  0.90430820  0.15646047  0.86127170    -0.90400
O787        O  0.90438325  0.17149118  0.74932971    -0.76400
O788        O  0.87643495  0.22256899  0.77340789    -0.85800
O789        O  0.92318855  0.19838586  0.81912549    -0.85500
O790        O  0.86237115  0.25146553  0.83577322    -0.72300
O791        O  0.90316843  0.23136624  0.87071275    -0.84400
Zr792      Zr  0.93723858  0.29923517  0.81197742     2.26400
Zr793      Zr  0.86254711  0.27399063  0.77864137     2.06300
Zr794      Zr  0.94871193  0.22649251  0.86621287     2.10000
Zr795      Zr  0.92317280  0.22148648  0.76332276     1.78800
O796        O  0.95822027  0.22209654  0.93007207    -0.93200
O797        O  0.90173617  0.22512944  0.70156139    -0.41000
O798        O  0.95214325  0.24796104  0.80957570    -0.77700
O799        O  0.90853530  0.27271533  0.76544828    -0.96400
O800        O  0.89095026  0.30355911  0.82269300    -0.89700
O801        O  0.93703864  0.27824519  0.86926908    -0.92500
C802        C  0.88655050  0.15348593  0.75966448     1.01200
C803        C  0.92919156  0.15344172  0.87917417     1.14200
C804        C  0.81013769  0.22258450  0.79122947     1.05000
O805        O  0.84624580  0.26651883  0.71623188    -0.94700
O806        O  0.86895939  0.32340879  0.75213708    -0.90400
O807        O  0.91323351  0.33922995  0.77341945    -0.83600
C808        C  0.88886143  0.34294537  0.75483716     1.11600
O809        O  0.85875195  0.27151124  0.91909950    -0.96600
Zr810      Zr  0.89135321  0.28171112  0.87914995     1.88900
O811        O  0.94551726  0.33964387  0.85236197    -0.73300
O812        O  0.82543142  0.30930201  0.78352273    -0.52500
O813        O  0.85279702  0.31734448  0.86870044    -0.97200
O814        O  0.91084181  0.27569629  0.94145379    -0.54400
O815        O  0.91805271  0.33031720  0.89317290    -0.73800
C816        C  0.93662482  0.34617997  0.88029850     0.98500
O817        O  0.96809913  0.32008985  0.77416717    -0.62600
O818        O  0.98920315  0.19941708  0.85572662    -0.57400
O819        O  0.98580538  0.29226717  0.83925905    -0.94100
O820        O  0.98911995  0.25739661  0.88398690    -0.92500
O821        O  0.96403940  0.18980901  0.76563018    -0.92900
O822        O  0.95511834  0.24174398  0.72671677    -0.91700
C823        C  0.99981593  0.27676046  0.86513376     1.17400
H824        H  0.93036911  0.17810592  0.81814361     0.33300
H825        H  0.90910973  0.28278906  0.74312787     0.44200
H826        H  0.94973988  0.28806505  0.88771467     0.37700
H827        H  0.84395934  0.25177886  0.84160222     0.34200
H828        H  0.91056923  0.20886046  0.69020659     0.26000
H829        H  0.81068874  0.30543873  0.76297607     0.31900
H830        H  0.86137773  0.33746210  0.87476459     0.37800
H831        H  0.95821238  0.17352844  0.74859332     0.32300
H832        H  0.99783340  0.19100055  0.87901076     0.31200
H833        H  0.97838706  0.21796243  0.93619871     0.32800
H834        H  0.93005557  0.28380241  0.94393175     0.31800
H835        H  0.96871695  0.25394187  0.74284429     0.35800
H836        H  0.95889755  0.31527782  0.74999393     0.28500
H837        H  0.84216887  0.15667030  0.85891210     0.32800
H838        H  0.85765912  0.29071196  0.93165763     0.35600
H839        H  0.98177038  0.18152634  0.84196930     0.28200
H840        H  0.96682670  0.34247538  0.77550650     0.41100
H841        H  0.83184796  0.28222603  0.70928656     0.31200
H842        H  0.88238900  0.21793388  0.70086464     0.38800
H843        H  0.91311668  0.25348789  0.94556570     0.30600
H844        H  0.81754666  0.30187807  0.80405624     0.30700
H845        H  0.83970854  0.18732204  0.87807364     0.31000
C846        C  0.87919157  0.02957746  0.70248166     0.29900
C847        C  0.88115839  0.46814667  0.70618482     0.29900
C848        C  0.85074866  0.01257704  0.69232644    -0.06300
C849        C  0.89610585  0.01494965  0.67620441    -0.07000
C850        C  0.89149544  0.01376660  0.73751276    -0.06900
C851        C  0.85262772  0.48324054  0.69720143    -0.06300
C852        C  0.89732141  0.48389004  0.67954943    -0.07000
C853        C  0.89441420  0.48338371  0.73998672    -0.06900
C854        C  0.82567268  0.47261835  0.69088797    -0.32300
N855        N  0.80842250  0.49673985  0.68562038     0.14200
C856        C  0.82256915  0.01916541  0.68315552    -0.32300
H857        H  0.81328934  0.04141010  0.67858123     0.16100
C858        C  0.92058174  0.47617031  0.66612775    -0.31300
N859        N  0.93143148  0.50125108  0.65230684     0.12900
C860        C  0.91606294  0.02494190  0.65678624    -0.31300
C861        C  0.90893747  0.47363162  0.77200401    -0.31600
N862        N  0.91644370  0.49844669  0.79152423     0.13400
H863        H  0.91402287  0.45037893  0.78013390     0.16000
C864        C  0.90463443  0.02317685  0.77004631    -0.31600
H865        H  0.90757387  0.04645164  0.77836615     0.16000
H866        H  0.92040275  0.04824162  0.65012473     0.16000
H867        H  0.81901280  0.44908270  0.69172132     0.16100
H868        H  0.93108339  0.45465919  0.67034224     0.16000
C869        C  0.02329674  0.03224412  0.61110595     0.29900
C870        C  0.02213273  0.46969227  0.61594865     0.29900
C871        C  0.04741104  0.01614181  0.63476114    -0.06300
C872        C  0.99719453  0.01747044  0.62295850    -0.07000
C873        C  0.02281343  0.01729583  0.57536877    -0.06900
C874        C  0.04737093  0.48430571  0.63866814    -0.06300
C875        C  0.99732279  0.48557357  0.62767475    -0.07000
C876        C  0.02181658  0.48511147  0.57973893    -0.06900
C877        C  0.06891714  0.47440724  0.66423452    -0.32300
N878        N  0.08121428  0.00000943  0.67709098     0.14200
C879        C  0.06895154  0.02519712  0.66048459    -0.32300
H880        H  0.07357223  0.04837571  0.66839965     0.16100
C881        C  0.97161327  0.47674735  0.63460415    -0.31300
N882        N  0.95679672  0.00160298  0.63731245     0.12900
C883        C  0.97200106  0.02673756  0.63135187    -0.31300
C884        C  0.00840046  0.47639007  0.54717241    -0.31600
N885        N  0.00445534  0.00263076  0.02526211     0.13400
H886        H  0.00136703  0.45355017  0.54032185     0.16000
C887        C  0.00987942  0.02629344  0.54208754    -0.31600
H888        H  0.00403339  0.04933235  0.53378281     0.16000
H889        H  0.96509219  0.04987589  0.63263637     0.16000
H890        H  0.07246274  0.45103630  0.67304226     0.16100
H891        H  0.96348504  0.45378781  0.63439281     0.16000
Zr892      Zr  0.11796038  0.20336820  0.67743665     2.17500
O893        O  0.13289351  0.17779809  0.62877886    -0.51400
O894        O  0.12949696  0.15984248  0.71899310    -0.74600
O895        O  0.16731176  0.21529730  0.67348973    -0.81400
O896        O  0.04649343  0.16902148  0.66867785    -0.83100
O897        O  0.17637313  0.26513835  0.68719032    -0.78800
O898        O  0.08734867  0.16205918  0.65009388    -0.90400
O899        O  0.13486932  0.17754981  0.77425670    -0.76400
O900        O  0.14019878  0.23440915  0.72475004    -0.85800
O901        O  0.08909337  0.19725248  0.72096991    -0.85500
O902        O  0.11752893  0.25590710  0.65639108    -0.72300
O903        O  0.07218470  0.22115299  0.65087183    -0.84400
Zr904      Zr  0.06447095  0.29651037  0.72129352     2.26400
Zr905      Zr  0.13669883  0.28743631  0.70549190     2.06300
Zr906      Zr  0.04458479  0.21698464  0.69628951     2.10000
Zr907      Zr  0.11252687  0.22692625  0.76809875     1.78800
O908        O  0.99930576  0.22836589  0.66092781    -0.93200
O909        O  0.16026754  0.23852517  0.79585815    -0.41000
O910        O  0.07232262  0.24629029  0.73526030    -0.77700
O911        O  0.11016859  0.27960163  0.75103793    -0.96400
O912        O  0.09202054  0.30449150  0.67741550    -0.89700
O913        O  0.04249365  0.26801744  0.67273407    -0.92500
C914        C  0.13348203  0.15581233  0.75266045     1.01200
C915        C  0.06246765  0.15358304  0.65317798     1.14200
C916        C  0.18338415  0.23913095  0.67749695     1.05000
O917        O  0.17854240  0.30134066  0.74631333    -0.94700
O918        O  0.13114187  0.33631777  0.73518070    -0.90400
O919        O  0.09172705  0.33175299  0.75848840    -0.83600
C920        C  0.11358265  0.34610913  0.75374535     1.11600
O921        O  0.08074977  0.24834734  0.57714654    -0.96600
Zr922      Zr  0.07212862  0.27310367  0.62984157     1.88900
O923        O  0.04720783  0.33529587  0.67745525    -0.73300
O924        O  0.14861497  0.32404777  0.66210178    -0.52500
O925        O  0.09739053  0.30550385  0.59399585    -0.97200
O926        O  0.02810300  0.26185862  0.59170183    -0.54400
O927        O  0.04962461  0.32226981  0.62199932    -0.73800
C928        C  0.04337861  0.34082150  0.64434620     0.98500
O929        O  0.03264613  0.33461046  0.73753733    -0.62600
O930        O  0.01067760  0.18374402  0.71770026    -0.57400
O931        O  0.02607898  0.27293059  0.74335967    -0.94100
O932        O  0.03540679  0.22478026  0.75516883    -0.92500
O933        O  0.08998352  0.19269847  0.80474989    -0.92900
O934        O  0.10811345  0.24651116  0.82518344    -0.91700
C935        C  0.03061155  0.25113896  0.76561350     1.17400
H936        H  0.08553794  0.17676016  0.72845983     0.33300
H937        H  0.11862247  0.28972340  0.77217685     0.44200
H938        H  0.02403721  0.27575216  0.66432637     0.37700
H939        H  0.12924650  0.25764388  0.63875954     0.34200
H940        H  0.15917880  0.25774272  0.80836247     0.26000
H941        H  0.16690095  0.33246514  0.67301653     0.31900
H942        H  0.10080683  0.32479926  0.60678904     0.37800
H943        H  0.10504752  0.18510190  0.82340890     0.32300
H944        H  0.99894555  0.17544594  0.69649644     0.31200
H945        H  0.99638493  0.21239285  0.64301527     0.32800
H946        H  0.01400197  0.27387179  0.60074777     0.31800
H947        H  0.09817948  0.26600628  0.81995416     0.35800
H948        H  0.01529805  0.32507359  0.74248523     0.28500
H949        H  0.14957966  0.16607257  0.63941788     0.32800
H950        H  0.07095643  0.26075320  0.55713855     0.35600
H951        H  0.02150941  0.16622238  0.72915964     0.28200
H952        H  0.04130029  0.34470056  0.75938864     0.41100
H953        H  0.18600159  0.28182354  0.75710414     0.31200
H954        H  0.16490174  0.22290371  0.81478740     0.38800
H955        H  0.02394183  0.24046031  0.59758446     0.30600
H956        H  0.15266447  0.31161662  0.64264972     0.30700
H957        H  0.13984713  0.19412452  0.61445329     0.31000
C958        C  0.12222786  0.03067889  0.80072986     0.32100
C959        C  0.11811901  0.46713089  0.80426736     0.29900
C960        C  0.14960085  0.01329079  0.81602334    -0.06300
C961        C  0.10027789  0.01686031  0.82156919    -0.07000
C962        C  0.11440685  0.01544120  0.76471342    -0.06900
C963        C  0.14680690  0.48011514  0.82034487    -0.06300
C964        C  0.09775126  0.48388219  0.82316574    -0.07000
C965        C  0.11377620  0.48288547  0.76757373    -0.06900
C966        C  0.17253698  0.46912290  0.81669664    -0.32300
N967        N  0.19059979  0.49230845  0.81578492     0.14200
C968        C  0.17686323  0.01895589  0.81143411    -0.32300
H969        H  0.18496558  0.04058122  0.80376636     0.16100
C970        C  0.07579372  0.47542341  0.83959305    -0.31300
N971        N  0.06362478  0.50085349  0.84934012     0.12900
C972        C  0.07874026  0.02684034  0.83794794    -0.31300
C973        C  0.10626327  0.47393919  0.73315953    -0.31600
N974        N  0.10099158  0.49890194  0.71208933     0.13400
H975        H  0.10300614  0.45105854  0.72401146     0.16000
C976        C  0.10621402  0.02470508  0.72994642    -0.31600
H977        H  0.10414855  0.04778530  0.71984570     0.16000
H978        H  0.07349446  0.05031835  0.84107358     0.16000
H979        H  0.17706358  0.44608290  0.81073972     0.16100
H980        H  0.06910040  0.45227863  0.84354364     0.16000
C981        C  0.51801144  0.28550071  0.59685808     0.29900
C982        C  0.51175602  0.22300499  0.59533674     0.29900
C983        C  0.54320882  0.26652193  0.61356325    -0.06300
C984        C  0.49419749  0.27232244  0.61541171    -0.07000
C985        C  0.51005059  0.27157265  0.56012069    -0.06900
C986        C  0.53993282  0.23515551  0.61331859    -0.06300
C987        C  0.49096581  0.24036081  0.61422117    -0.07000
C988        C  0.50715448  0.23998823  0.55953053    -0.06900
C989        C  0.55853393  0.22354849  0.64154601    -0.32300
N990        N  0.57327383  0.24681155  0.65809797     0.14200
C991        C  0.56424625  0.27295923  0.64106444    -0.32300
H992        H  0.57023383  0.29539835  0.65033700     0.16100
C993        C  0.46580200  0.23371939  0.62473568    -0.31300
N994        N  0.45434133  0.25963919  0.63438217     0.12900
C995        C  0.47096989  0.28347862  0.62763426    -0.31300
C996        C  0.49785844  0.23223710  0.52519436    -0.31600
N997        N  0.49527697  0.25802515  0.50479507     0.13400
H998        H  0.49313212  0.20944401  0.51599043     0.16000
C999        C  0.50203901  0.28223952  0.52588180    -0.31600
H1000       H  0.50084764  0.30579215  0.51708668     0.16000
H1001       H  0.46607230  0.30715814  0.63006543     0.16000
H1002       H  0.55880568  0.20038908  0.65162195     0.16100
H1003       H  0.45575361  0.21166129  0.62355602     0.16000
Zr1004     Zr  0.62567384  0.45263953  0.65582511     2.17500
O1005       O  0.64756623  0.43125374  0.61015029    -0.51400
O1006       O  0.63563187  0.41093475  0.70140864    -0.74600
O1007       O  0.67575629  0.46349186  0.66964676    -0.81400
O1008       O  0.56250815  0.42407822  0.59942530    -0.83100
O1009       O  0.68004923  0.00854284  0.68894853    -0.78800
O1010       O  0.60055661  0.40555322  0.63436127    -0.90400
O1011       O  0.60444263  0.41580949  0.73764894    -0.76400
O1012       O  0.63163314  0.47733296  0.71084717    -0.85800
O1013       O  0.58278070  0.44445164  0.67549479    -0.85500
O1014       O  0.62879991  0.00761285  0.64017680    -0.72300
O1015       O  0.59173697  0.47790701  0.61089568    -0.84400
Zr1016     Zr  0.55880556  0.04342603  0.68033107     2.26400
Zr1017     Zr  0.63663805  0.03153891  0.69649932     2.06300
Zr1018     Zr  0.54887005  0.46676349  0.62990904     2.10000
Zr1019     Zr  0.58986006  0.46726514  0.73167630     1.78800
O1020       O  0.52389256  0.47877871  0.57105442    -0.93200
O1021       O  0.63153687  0.46522634  0.77737183    -0.41000
O1022       O  0.55329834  0.48750813  0.68800808    -0.77700
O1023       O  0.59618028  0.02202682  0.72181797    -0.96400
O1024       O  0.59955423  0.05562645  0.65733513    -0.89700
O1025       O  0.55115199  0.02297738  0.62287041    -0.92500
C1026       C  0.62336074  0.40114943  0.72673464     1.01200
C1027       C  0.57695209  0.40189188  0.61395663     1.14200
C1028       C  0.69048451  0.48634091  0.68286276     1.05000
O1029       O  0.66445847  0.02922489  0.75529190    -0.94700
O1030       O  0.62695145  0.07835341  0.72678253    -0.90400
O1031       O  0.58020401  0.08394291  0.71568527    -0.83600
C1032       C  0.60450999  0.09269645  0.72964219     1.11600
O1033       O  0.61791059  0.02344383  0.55424882    -0.96600
Zr1034     Zr  0.59219529  0.03401320  0.60111374     1.88900
O1035       O  0.54681135  0.08709759  0.64399897    -0.73300
O1036       O  0.66631967  0.07003749  0.67545538    -0.52500
O1037       O  0.62705436  0.07379495  0.59907150    -0.97200
O1038       O  0.56449988  0.02993430  0.54246168    -0.54400
O1039       O  0.56377592  0.08199924  0.59377633    -0.73800
C1040       C  0.54964684  0.09658656  0.61346316     0.98500
O1041       O  0.53052222  0.05869080  0.72252876    -0.62600
O1042       O  0.51491311  0.42654033  0.63479946    -0.57400
O1043       O  0.51164778  0.03051491  0.65319304    -0.94100
O1044       O  0.50438708  0.47539305  0.64452249    -0.92500
O1045       O  0.55294825  0.43858769  0.75268602    -0.92900
O1046       O  0.58074349  0.48378810  0.78812377    -0.91700
C1047       C  0.49922009  0.00770756  0.66414871     1.17400
H1048       H  0.57769743  0.42341364  0.67859537     0.33300
H1049       H  0.59780783  0.03185853  0.74413102     0.44200
H1050       H  0.53583892  0.03189480  0.60667909     0.37700
H1051       H  0.64521779  0.01017501  0.62971833     0.34200
H1052       H  0.62602638  0.45310436  0.79696283     0.26000
H1053       H  0.65386462  0.08742601  0.66770513     0.31900
H1054       H  0.61663151  0.09138828  0.58712725     0.37800
H1055       H  0.54733309  0.42286132  0.73486573     0.32300
H1056       H  0.51535417  0.41255978  0.61527524     0.31200
H1057       H  0.50423533  0.47382719  0.57203490     0.32800
H1058       H  0.54778886  0.04236724  0.54269367     0.31800
H1059       H  0.59818763  0.00178506  0.79511597     0.35800
H1060       H  0.54311818  0.06380606  0.74461330     0.28500
H1061       H  0.66374045  0.41977291  0.62281603     0.32800
H1062       H  0.61913447  0.04305601  0.54145516     0.35600
H1063       H  0.52265039  0.41492192  0.65647188     0.28200
H1064       H  0.52177512  0.07802043  0.71304354     0.41100
H1065       H  0.67415223  0.00946508  0.75676076     0.31200
H1066       H  0.64513430  0.45212126  0.76882006     0.38800
H1067       H  0.55755094  0.00867975  0.54136423     0.30600
H1068       H  0.67860985  0.07711662  0.69693733     0.30700
H1069       H  0.65566007  0.44898254  0.59920143     0.31000
C1070       C  0.62479436  0.27517996  0.77767010     0.29900
C1071       C  0.61760363  0.21316843  0.78202898     0.29900
C1072       C  0.65155579  0.25613823  0.78950747    -0.06300
C1073       C  0.60495560  0.26406431  0.80340265    -0.07000
C1074       C  0.61097864  0.25965832  0.74420417    -0.06900
C1075       C  0.64784870  0.22456067  0.79085162    -0.06300
C1076       C  0.60195796  0.23210291  0.80575052    -0.07000
C1077       C  0.60830411  0.22842097  0.74552539    -0.06900
C1078       C  0.67303581  0.21203854  0.78720092    -0.32300
N1079       N  0.69243854  0.23424348  0.78745921     0.14200
C1080       C  0.67951599  0.26136215  0.78851501    -0.32300
H1081       H  0.68927962  0.28340528  0.78683817     0.16100
C1082       C  0.57751845  0.22600590  0.81829539    -0.31300
N1083       N  0.56495179  0.25245724  0.82379684     0.12900
C1084       C  0.58078809  0.27568059  0.81338233    -0.31300
C1085       C  0.59555422  0.21981722  0.71225803    -0.31600
N1086       N  0.58933226  0.24531719  0.69211225     0.13400
H1087       H  0.59039603  0.19698886  0.70355448     0.16000
C1088       C  0.59820742  0.26972791  0.71166173    -0.31600
H1089       H  0.59506061  0.29324888  0.70338770     0.16000
H1090       H  0.57411259  0.29908564  0.81045548     0.16000
H1091       H  0.67660354  0.18878981  0.78106905     0.16100
H1092       H  0.56850108  0.20361814  0.82032364     0.16000
C1093       C  0.47799410  0.28883456  0.87149744     0.29900
C1094       C  0.47632233  0.22579023  0.87251834     0.29900
C1095       C  0.45154128  0.27376602  0.85164061    -0.06300
C1096       C  0.50145808  0.27292597  0.85567518    -0.07000
C1097       C  0.48139627  0.27283515  0.90843598    -0.06900
C1098       C  0.45010230  0.24239309  0.85300808    -0.06300
C1099       C  0.50003411  0.24099741  0.85601717    -0.07000
C1100       C  0.47976904  0.24093028  0.90883703    -0.06900
C1101       C  0.42572942  0.23429231  0.83087070    -0.32300
N1102       N  0.41408428  0.25943923  0.81371789     0.14200
C1103       C  0.42939625  0.28384123  0.82673629    -0.32300
H1104       H  0.42629939  0.30689079  0.81657842     0.16100
C1105       C  0.52289703  0.23055522  0.84327902    -0.31300
N1106       N  0.53877608  0.25466211  0.83542432     0.12900
C1107       C  0.52612345  0.28058298  0.84344794    -0.31300
C1108       C  0.48150536  0.23174276  0.94363239    -0.31600
N1109       N  0.48663228  0.25633086  0.96445087     0.13400
H1110       H  0.47895727  0.20894309  0.95335521     0.16000
C1111       C  0.48669393  0.28155851  0.94330984    -0.31600
H1112       H  0.49083862  0.30446863  0.95248658     0.16000
H1113       H  0.53472951  0.30323405  0.84190362     0.16000
H1114       H  0.41782213  0.21161947  0.82547308     0.16100
H1115       H  0.52790061  0.20687058  0.84118751     0.16000
Zr1116     Zr  0.37367251  0.45938171  0.81506649     2.17500
O1117       O  0.35934407  0.43187184  0.86438696    -0.51400
O1118       O  0.36411372  0.41896351  0.77060902    -0.74600
O1119       O  0.32268029  0.46347237  0.81115697    -0.81400
O1120       O  0.44952839  0.43222911  0.84154336    -0.83100
O1121       O  0.31354601  0.01263031  0.79413911    -0.78800
O1122       O  0.40482601  0.41583181  0.83796283    -0.90400
O1123       O  0.38200484  0.43417582  0.72243051    -0.76400
O1124       O  0.35740426  0.48769859  0.76186838    -0.85800
O1125       O  0.41043105  0.46009677  0.78274873    -0.85500
O1126       O  0.36717434  0.01013270  0.83513388    -0.72300
O1127       O  0.41164816  0.48508078  0.85242503    -0.84400
Zr1128     Zr  0.42698159  0.06473304  0.78920757     2.26400
Zr1129     Zr  0.35363032  0.03919135  0.78123877     2.06300
Zr1130     Zr  0.44868769  0.48373357  0.81939449     2.10000
Zr1131     Zr  0.39382913  0.48677916  0.72887393     1.78800
O1132       O  0.48156742  0.47807582  0.87423259    -0.93200
O1133       O  0.35107263  0.48247032  0.68574840    -0.41000
O1134       O  0.43661954  0.01389355  0.77264124    -0.77700
O1135       O  0.39090284  0.03975333  0.74870839    -0.96400
O1136       O  0.38958572  0.06374659  0.82076711    -0.89700
O1137       O  0.44196545  0.03535302  0.84231179    -0.92500
C1138       C  0.37099130  0.41435069  0.74037068     1.01200
C1139       C  0.43149854  0.41152149  0.84445228     1.14200
C1140       C  0.30496030  0.48515041  0.80238501     1.05000
O1141       O  0.32023561  0.03786671  0.72655754    -0.94700
O1142       O  0.35563565  0.08915868  0.75260715    -0.90400
O1143       O  0.40034643  0.09815449  0.74631426    -0.83600
C1144       C  0.37456652  0.10497297  0.74108313     1.11600
O1145       O  0.38266930  0.01461242  0.92127397    -0.96600
Zr1146     Zr  0.40468562  0.03480181  0.87363743     1.88900
O1147       O  0.41373504  0.09849262  0.83102450    -0.73300
O1148       O  0.32652308  0.07538207  0.80761762    -0.52500
O1149       O  0.37212932  0.06843399  0.89445570    -0.97200
O1150       O  0.43991843  0.01974769  0.92374764    -0.54400
O1151       O  0.43185003  0.08293907  0.88401078    -0.73800
C1152       C  0.42977991  0.10361572  0.85975699     0.98500
O1153       O  0.45734804  0.10512986  0.77097112    -0.62600
O1154       O  0.47474071  0.45228409  0.78570557    -0.57400
O1155       O  0.47700361  0.06462480  0.80509543    -0.94100
O1156       O  0.48707345  0.51802554  0.81456637    -0.92500
O1157       O  0.43128500  0.46650433  0.70253837    -0.92900
O1158       O  0.39876700  0.51405363  0.67474901    -0.91700
C1159       C  0.48862678  0.03971514  0.80097012     1.17400
H1160       H  0.41573001  0.43972899  0.77830520     0.33300
H1161       H  0.38562492  0.05001892  0.72629548     0.44200
H1162       H  0.45797122  0.04416446  0.85698800     0.37700
H1163       H  0.35192729  0.00924593  0.84797313     0.34200
H1164       H  0.35563172  0.46863865  0.66779727     0.26000
H1165       H  0.30814752  0.07594912  0.79200526     0.31900
H1166       H  0.37698208  0.08915892  0.88685072     0.37800
H1167       H  0.43506790  0.44609896  0.71358462     0.32300
H1168       H  0.48713624  0.43973014  0.80333617     0.31200
H1169       H  0.49800698  0.46847739  0.86746885     0.32800
H1170       H  0.45600267  0.03332364  0.92250988     0.31800
H1171       H  0.40253019  0.03040366  0.67701279     0.35800
H1172       H  0.44612745  0.11932303  0.75410222     0.28500
H1173       H  0.34622319  0.41600535  0.85360889     0.32800
H1174       H  0.39163372  0.02536849  0.94256697     0.35600
H1175       H  0.46139178  0.43751249  0.77315430     0.28200
H1176       H  0.46451443  0.11745219  0.79168158     0.41100
H1177       H  0.30771566  0.05519471  0.72776151     0.31200
H1178       H  0.33802937  0.47051257  0.69766220     0.38800
H1179       H  0.44610199  0.99942335  0.91791591     0.30600
H1180       H  0.32301640  0.06523359  0.82955278     0.30700
H1181       H  0.34774317  0.44629393  0.87460143     0.31000
C1182       C  0.37024416  0.29109841  0.69088420     0.29900
C1183       C  0.37105338  0.22862501  0.69132931     0.29900
C1184       C  0.34216429  0.27514651  0.67472198    -0.06300
C1185       C  0.39202562  0.27630478  0.67078088    -0.07000
C1186       C  0.37653577  0.27517542  0.72724837    -0.06900
C1187       C  0.34364721  0.24339695  0.67381790    -0.06300
C1188       C  0.39258250  0.24437610  0.67194163    -0.07000
C1189       C  0.37783535  0.24394035  0.72719438    -0.06900
C1190       C  0.31707443  0.23159544  0.66785188    -0.32300
N1191       N  0.29876372  0.25431997  0.66737525     0.14200
C1192       C  0.31371149  0.28067479  0.67326119    -0.32300
H1193       H  0.30467163  0.30136657  0.68036343     0.16100
C1194       C  0.41628096  0.23576506  0.65986915    -0.31300
N1195       N  0.42920806  0.26065672  0.64849052     0.12900
C1196       C  0.41482588  0.28569746  0.65541935    -0.31300
C1197       C  0.39035523  0.23445993  0.76043342    -0.31600
N1198       N  0.39549390  0.25906189  0.78121144     0.13400
H1199       H  0.39737781  0.21162433  0.76776203     0.16000
C1200       C  0.38637531  0.28400807  0.76139666    -0.31600
H1201       H  0.38883374  0.30704235  0.77056202     0.16000
H1202       H  0.42101124  0.30897410  0.65108295     0.16000
H1203       H  0.31155095  0.20767961  0.66787095     0.16100
H1204       H  0.42478658  0.21321152  0.66178989     0.16000
C1205       C  0.39429233  0.36745572  0.73051674    -0.26400
C1206       C  0.36935703  0.38358876  0.72587509    -0.14500
C1207       C  0.34644265  0.37288693  0.70149922     0.36200
C1208       C  0.34818712  0.34445748  0.68597170    -0.25800
C1209       C  0.37179750  0.32589336  0.69521626    -0.15100
C1210       C  0.39598467  0.33937091  0.71476818     0.37300
N1211       N  0.42210050  0.32391418  0.72035857    -0.89300
H1212       H  0.41278757  0.37680766  0.74657283     0.18400
H1213       H  0.33089641  0.33719501  0.66666066     0.18400
N1214       N  0.32142288  0.39023739  0.69147701    -0.88400
H1215       H  0.42927388  0.32155778  0.74736521     0.35700
H1216       H  0.43636794  0.33776990  0.71006802     0.40800
H1217       H  0.32248777  0.41071174  0.70477045     0.40500
H1218       H  0.30516426  0.37762226  0.69915724     0.35300
C1219       C  0.37912111  0.14110296  0.69231260    -0.26400
C1220       C  0.36706008  0.13360339  0.72179115    -0.14500
C1221       C  0.35127639  0.15546988  0.73516404     0.36200
C1222       C  0.35142581  0.18517535  0.72230380    -0.25800
C1223       C  0.36736548  0.19416995  0.69653644    -0.15100
C1224       C  0.37779728  0.17078896  0.67802445     0.37300
N1225       N  0.38326201  0.17490402  0.64301760    -0.89300
H1226       H  0.38924165  0.12359392  0.67999512     0.18400
H1227       H  0.34028577  0.20196773  0.73435349     0.18400
N1228       N  0.33649389  0.14883301  0.76333951    -0.88400
H1229       H  0.40422573  0.17062813  0.64299657     0.35700
H1230       H  0.37787777  0.19659312  0.63278395     0.40800
H1231       H  0.32156827  0.13204491  0.75526755     0.40500
H1232       H  0.35047196  0.14064510  0.78509206     0.35300
C1233       C  0.45550091  0.33589101  0.89159819    -0.26400
C1234       C  0.47255455  0.32367364  0.86918833    -0.14500
C1235       C  0.47427428  0.34084477  0.83811953     0.36200
C1236       C  0.46049238  0.36892311  0.83115080    -0.25800
C1237       C  0.44353671  0.38057762  0.85343317    -0.15100
C1238       C  0.44140308  0.36385696  0.88447667     0.37300
N1239       N  0.42543663  0.37440300  0.90958295    -0.89300
H1240       H  0.45126421  0.32274862  0.91399202     0.18400
H1241       H  0.46237976  0.38139713  0.80715562     0.18400
N1242       N  0.48813645  0.32891623  0.81188756    -0.88400
H1243       H  0.40911251  0.35894591  0.91023646     0.35700
H1244       H  0.41645857  0.39550035  0.90212508     0.40800
H1245       H  0.50333680  0.34464503  0.80718442     0.40500
H1246       H  0.47367207  0.32685248  0.78868317     0.35300
C1247       C  0.46115125  0.17986463  0.83625708    -0.26400
C1248       C  0.47389264  0.19061683  0.86895565    -0.14500
C1249       C  0.47962263  0.16843899  0.89656917     0.36200
C1250       C  0.46492366  0.14028397  0.89369423    -0.25800
C1251       C  0.44573754  0.13328777  0.86314790    -0.15100
C1252       C  0.44390814  0.15402088  0.83401142     0.37300
N1253       N  0.42363469  0.14991216  0.80259354    -0.89300
H1254       H  0.46046682  0.19457544  0.81324753     0.18400
H1255       H  0.46897744  0.12369425  0.91509750     0.18400
N1256       N  0.50264763  0.17183188  0.92494216    -0.88400
H1257       H  0.42606433  0.16625460  0.78327116     0.35700
H1258       H  0.40404819  0.15353976  0.80898739     0.40800
H1259       H  0.51453269  0.19086234  0.92007427     0.40500
H1260       H  0.51582705  0.15332370  0.92461933     0.35300
C1261       C  0.47223560  0.04425102  0.73608479    -0.26400
C1262       C  0.48924836  0.02991821  0.76506819    -0.14500
C1263       C  0.50593625  0.00545792  0.75925787     0.36200
C1264       C  0.50340771  0.99421085  0.72567289    -0.25800
C1265       C  0.48909891  0.01073817  0.69676759    -0.15100
C1266       C  0.47325853  0.03598819  0.70180480     0.37300
N1267       N  0.46054767  0.05460725  0.67234779    -0.89300
H1268       H  0.45827522  0.06196752  0.73968751     0.18400
H1269       H  0.51594767  0.97502141  0.72170481     0.18400
N1270       N  0.52822773  0.99458996  0.78564108    -0.88400
H1271       H  0.44902792  0.07205182  0.68060836     0.35700
H1272       H  0.44670415  0.04111985  0.65546139     0.40800
H1273       H  0.52084343  0.98445041  0.80676830     0.40500
H1274       H  0.54039480  0.01337750  0.79498921     0.35300
C1275       C  0.64168151  0.34814323  0.72728419    -0.26400
C1276       C  0.62974400  0.37070140  0.74431684    -0.14500
C1277       C  0.62136953  0.36286790  0.77684722     0.36200
C1278       C  0.62145513  0.33231562  0.78873702    -0.25800
C1279       C  0.63039727  0.30905871  0.76946138    -0.15100
C1280       C  0.64288252  0.31786368  0.73991575     0.37300
N1281       N  0.65545172  0.29588580  0.72105179    -0.89300
H1282       H  0.64911598  0.35363872  0.70309254     0.18400
H1283       H  0.61425923  0.32698132  0.81302432     0.18400
N1284       N  0.61259739  0.38586031  0.79802927    -0.88400
H1285       H  0.67554152  0.30362163  0.72005408     0.35700
H1286       H  0.64486625  0.29595865  0.69508911     0.40800
H1287       H  0.62558100  0.38505940  0.82259906     0.40500
H1288       H  0.59237246  0.38060966  0.80166510     0.35300
C1289       C  0.58604699  0.16951865  0.76290712    -0.26400
C1290       C  0.61164391  0.17871159  0.78195089    -0.14500
C1291       C  0.63132135  0.15552115  0.79378175     0.36200
C1292       C  0.62881449  0.12746720  0.77649090    -0.25800
C1293       C  0.60581919  0.12127504  0.75007574    -0.15100
C1294       C  0.58341501  0.14237496  0.74497643     0.37300
N1295       N  0.55840757  0.13859257  0.71984912    -0.89300
H1296       H  0.56918215  0.18568065  0.75706857     0.18400
H1297       H  0.64455342  0.11028710  0.78425601     0.18400
N1298       N  0.65094306  0.15780018  0.82601255    -0.88400
H1299       H  0.54712050  0.12025982  0.72771749     0.35700
H1300       H  0.56334935  0.13529676  0.69501600     0.40800
H1301       H  0.64980452  0.17891459  0.83743565     0.40500
H1302       H  0.67105301  0.15452784  0.82125217     0.35300
C1303       C  0.54338193  0.32983690  0.57293199    -0.26400
C1304       C  0.52753633  0.31922943  0.59826598    -0.14500
C1305       C  0.53074907  0.33546206  0.63000753     0.36200
C1306       C  0.54875080  0.36087187  0.63525150    -0.25800
C1307       C  0.56359028  0.37146773  0.60940224    -0.15100
C1308       C  0.56062662  0.35577968  0.57765670     0.37300
N1309       N  0.57542628  0.36482191  0.55004167    -0.89300
H1310       H  0.54422414  0.31679601  0.54990554     0.18400
H1311       H  0.55104665  0.37255996  0.65992644     0.18400
N1312       N  0.51757821  0.32492963  0.65831154    -0.88400
H1313       H  0.58872252  0.34705041  0.54686267     0.35700
H1314       H  0.58814305  0.38376077  0.55683800     0.40800
H1315       H  0.53300288  0.32022698  0.68011855     0.40500
H1316       H  0.50539405  0.34257759  0.66479198     0.35300
C1317       C  0.53013703  0.17547912  0.57084014    -0.26400
C1318       C  0.51404491  0.18782972  0.59433773    -0.14500
C1319       C  0.50882300  0.16851902  0.62232909     0.36200
C1320       C  0.51802417  0.13821808  0.62471871    -0.25800
C1321       C  0.53545987  0.12663028  0.60268380    -0.15100
C1322       C  0.54079076  0.14545674  0.57462050     0.37300
N1323       N  0.55822137  0.13489812  0.55123282    -0.89300
H1324       H  0.53650965  0.19015284  0.55084038     0.18400
H1325       H  0.51321981  0.12425805  0.64632518     0.18400
N1326       N  0.49668958  0.18011035  0.65048673    -0.88400
H1327       H  0.56102537  0.15192086  0.53281443     0.35700
H1328       H  0.54766463  0.11707849  0.53703016     0.40800
H1329       H  0.51098815  0.19514938  0.66449345     0.40500
H1330       H  0.49340001  0.16279989  0.66833568     0.35300
C1331       C  0.26830855  0.00730195  0.82851570    -0.26400
C1332       C  0.27624801  0.48223491  0.80885591    -0.14500
C1333       C  0.25609283  0.46386206  0.78848111     0.36200
C1334       C  0.22782575  0.46731073  0.79103421    -0.25800
C1335       C  0.21946778  0.48934264  0.81287490    -0.15100
C1336       C  0.24003305  0.01029489  0.82958280     0.37300
N1337       N  0.23117795  0.03449899  0.84901340    -0.89300
H1338       H  0.28265625  0.02439242  0.84103636     0.18400
H1339       H  0.21220720  0.45346600  0.77516332     0.18400
N1340       N  0.26424884  0.44259338  0.76464847    -0.88400
H1341       H  0.23732997  0.05512476  0.83861077     0.35700
H1342       H  0.24143950  0.03236823  0.87504897     0.40800
H1343       H  0.27240444  0.45504382  0.74540395     0.40500
H1344       H  0.24688167  0.43083675  0.75161074     0.35300
C1345       C  0.26147236  0.22645454  0.69062819    -0.26400
C1346       C  0.26952008  0.24941708  0.66833882    -0.14500
C1347       C  0.24852611  0.26578133  0.64596259     0.36200
C1348       C  0.22046907  0.25997313  0.64755406    -0.25800
C1349       C  0.21241959  0.23795460  0.67095035    -0.15100
C1350       C  0.23337783  0.22057597  0.69240619     0.37300
N1351       N  0.22732339  0.19815083  0.71772576    -0.89300
H1352       H  0.27732364  0.21350483  0.70773895     0.18400
H1353       H  0.20471721  0.27363221  0.63115562     0.18400
N1354       N  0.25501581  0.28810125  0.62102842    -0.88400
H1355       H  0.23385781  0.17709359  0.71034410     0.35700
H1356       H  0.20608461  0.19606175  0.71778534     0.40800
H1357       H  0.26731614  0.27791419  0.60510812     0.40500
H1358       H  0.26636162  0.30574504  0.63453669     0.35300
C1359       C  0.09150124  0.42264134  0.77706372    -0.26400
C1360       C  0.11380586  0.43245757  0.80220170    -0.14500
C1361       C  0.13326797  0.41008170  0.81773724     0.36200
C1362       C  0.13436940  0.38222674  0.80059655    -0.25800
C1363       C  0.11607825  0.37648634  0.76907405    -0.15100
C1364       C  0.09431180  0.39715869  0.75754883     0.37300
N1365       N  0.07614054  0.39433202  0.72437127    -0.89300
H1366       H  0.07446832  0.43797593  0.76756723     0.18400
H1367       H  0.14874175  0.36478248  0.81245560     0.18400
N1368       N  0.14889326  0.41295035  0.85264961    -0.88400
H1369       H  0.06496809  0.37413552  0.72420994     0.35700
H1370       H  0.08827844  0.39352153  0.70472839     0.40800
H1371       H  0.14471367  0.43348715  0.86359652     0.40500
H1372       H  0.17009948  0.41188301  0.85187640     0.35300
C1373       C  0.14994074  0.11338646  0.79667352    -0.26400
C1374       C  0.13111239  0.12441477  0.76741791    -0.14500
C1375       C  0.10631111  0.10779660  0.75693673     0.36200
C1376       C  0.10184517  0.07993750  0.77348194    -0.25800
C1377       C  0.12322495  0.06576311  0.79710034    -0.15100
C1378       C  0.14605797  0.08432143  0.81197924     0.37300
N1379       N  0.16418462  0.07454437  0.84353433    -0.89300
H1380       H  0.16754978  0.12743717  0.80761835     0.18400
H1381       H  0.08256304  0.06773478  0.76471498     0.18400
N1382       N  0.08524823  0.11925827  0.72949378    -0.88400
H1383       H  0.17949500  0.09098741  0.85141797     0.35700
H1384       H  0.15226884  0.07245601  0.86340027     0.40800
H1385       H  0.06718887  0.12199400  0.73999367     0.40500
H1386       H  0.08138384  0.10294424  0.70997780     0.35300
C1387       C  0.04432224  0.38670921  0.60568562    -0.26400
C1388       C  0.03299479  0.37153460  0.63218571    -0.14500
C1389       C  0.01578738  0.38772967  0.65080570     0.36200
C1390       C  0.01227556  0.41912168  0.64462515    -0.25800
C1391       C  0.02361420  0.43480006  0.61822838    -0.15100
C1392       C  0.04055671  0.41817254  0.59913970     0.37300
N1393       N  0.05542804  0.43342418  0.57478006    -0.89300
H1394       H  0.05807274  0.37448428  0.59192303     0.18400
H1395       H  0.00202097  0.43146149  0.66232816     0.18400
N1396       N  0.00261067  0.37240964  0.67681669    -0.88400
H1397       H  0.06631843  0.41787787  0.56245002     0.35700
H1398       H  0.07034072  0.44759407  0.58918977     0.40800
H1399       H  0.98868557  0.35643028  0.66386218     0.40500
H1400       H  0.99076814  0.38757595  0.68832858     0.35300
C1401       C  0.01956546  0.08055697  0.64240652    -0.26400
C1402       C  0.02809774  0.06662725  0.61400732    -0.14500
C1403       C  0.04863284  0.08199361  0.59807890     0.36200
C1404       C  0.05931406  0.11054809  0.61037049    -0.25800
C1405       C  0.05062823  0.12394398  0.63910978    -0.15100
C1406       C  0.03026541  0.10846303  0.65490347     0.37300
N1407       N  0.02142928  0.11977041  0.68548821    -0.89300
H1408       H  0.00657119  0.06851643  0.65800338     0.18400
H1409       H  0.07499230  0.12182328  0.59796129     0.18400
N1410       N  0.06007358  0.06792812  0.57090992    -0.88400
H1411       H  0.02566443  0.10326398  0.70559198     0.35700
H1412       H  0.99986925  0.12242961  0.67969371     0.40800
H1413       H  0.08146823  0.06556658  0.57948296     0.40500
H1414       H  0.05701575  0.08248909  0.54882452     0.35300
C1415       C  0.76141055  0.97317257  0.65353852    -0.26400
C1416       C  0.77882462  0.49472013  0.68425008    -0.14500
C1417       C  0.76614252  0.50846773  0.70992903     0.36200
C1418       C  0.73776201  0.50417088  0.70963216    -0.25800
C1419       C  0.72111410  0.48664841  0.68396167    -0.15100
C1420       C  0.73237795  0.96980967  0.65214680     0.37300
N1421       N  0.71581332  0.95361782  0.62395405    -0.89300
H1422       H  0.77119209  0.96325203  0.63350168     0.18400
H1423       H  0.72857822  0.51500203  0.72965158     0.18400
N1424       N  0.78169471  0.52613757  0.73739447    -0.88400
H1425       H  0.72837483  0.94478916  0.60743665     0.35700
H1426       H  0.70267402  0.96935379  0.60879612     0.40800
H1427       H  0.78935382  0.54563676  0.72634774     0.40500
H1428       H  0.79835946  0.51317754  0.75037038     0.35300
C1429       C  0.76284863  0.23736179  0.76014614    -0.26400
C1430       C  0.77910782  0.21956714  0.78670677    -0.14500
C1431       C  0.76545197  0.20367998  0.81111024     0.36200
C1432       C  0.73681755  0.20864685  0.81052176    -0.25800
C1433       C  0.72141246  0.22890937  0.78602550    -0.15100
C1434       C  0.73453972  0.24218527  0.75961607     0.37300
N1435       N  0.71981069  0.26087250  0.73194600    -0.89300
H1436       H  0.77249062  0.24896046  0.74031075     0.18400
H1437       H  0.72653815  0.19730764  0.82990554     0.18400
N1438       N  0.78070474  0.18354310  0.83717812    -0.88400
H1439       H  0.71456014  0.28086154  0.74298393     0.35700
H1440       H  0.70177866  0.24936587  0.72039762     0.40800
H1441       H  0.78707353  0.16514984  0.82399847     0.40500
H1442       H  0.76775753  0.17448974  0.85370098     0.35300
C1443       C  0.03884583  0.24608918  0.86491468    -0.26400
C1444       C  0.03033633  0.27614387  0.86848528    -0.14500
C1445       C  0.04063048  0.29761231  0.84682231     0.36200
C1446       C  0.04204488  0.28871015  0.81279472    -0.25800
C1447       C  0.03644719  0.25823304  0.80319317    -0.15100
C1448       C  0.03831732  0.23597604  0.83047663     0.37300
N1449       N  0.03904334  0.20412218  0.82337293    -0.89300
H1450       H  0.03783891  0.22953906  0.88585569     0.18400
H1451       H  0.04645798  0.30549138  0.79404105     0.18400
N1452       N  0.04279602  0.32897493  0.85601941    -0.88400
H1453       H  0.01997945  0.19799778  0.80827271     0.35700
H1454       H  0.04141330  0.19118220  0.84671733     0.40800
H1455       H  0.02855415  0.34127449  0.83772960     0.40500
H1456       H  0.06272095  0.33657127  0.85357815     0.35300
C1457       C  0.90571229  0.11105948  0.73005402    -0.26400
C1458       C  0.88266354  0.12346961  0.74156517    -0.14500
C1459       C  0.85777505  0.10637867  0.73639712     0.36200
C1460       C  0.85677990  0.07771377  0.72069037    -0.25800
C1461       C  0.87997066  0.06449696  0.70933242    -0.15100
C1462       C  0.90535893  0.08184930  0.71611409     0.37300
N1463       N  0.93230859  0.06948986  0.71554483    -0.89300
H1464       H  0.92543298  0.12313965  0.73497033     0.18400
H1465       H  0.83817335  0.06472855  0.72126787     0.18400
N1466       N  0.83318664  0.11706149  0.74738550    -0.88400
H1467       H  0.93964231  0.07765191  0.69330140     0.35700
H1468       H  0.93318445  0.04591871  0.71821476     0.40800
H1469       H  0.82834224  0.13848007  0.73572685     0.40500
H1470       H  0.83714135  0.11910621  0.77465562     0.35300
C1471       C  0.89082105  0.38060903  0.70574800    -0.26400
C1472       C  0.88251813  0.37286318  0.73774237    -0.14500
C1473       C  0.86851239  0.39429722  0.75426270     0.36200
C1474       C  0.86655753  0.42421979  0.74116091    -0.25800
C1475       C  0.87872489  0.43359742  0.71209591    -0.15100
C1476       C  0.88801281  0.41067093  0.69201477     0.37300
N1477       N  0.89255647  0.41687747  0.65704282    -0.89300
H1478       H  0.89949605  0.36333331  0.69145576     0.18400
H1479       H  0.85697381  0.44096063  0.75521274     0.18400
N1480       N  0.85757812  0.38593196  0.78534587    -0.88400
H1481       H  0.87799267  0.40423360  0.64000243     0.35700
H1482       H  0.91218342  0.40867339  0.65501442     0.40800
H1483       H  0.84140546  0.37034155  0.77803738     0.40500
H1484       H  0.84871897  0.40473448  0.79504720     0.35300
C1485       C  0.93960732  0.06926830  0.90243657    -0.26400
C1486       C  0.96775972  0.06509609  0.89864740    -0.14500
C1487       C  0.98369992  0.09110486  0.89404345     0.36200
C1488       C  0.97044180  0.11950042  0.88846379    -0.25800
C1489       C  0.94159377  0.12286481  0.88805172    -0.15100
C1490       C  0.92615313  0.09735909  0.89581118     0.37300
N1491       N  0.89709200  0.09990076  0.89725462    -0.89300
H1492       H  0.92737547  0.04971814  0.90832611     0.18400
H1493       H  0.98286735  0.13914253  0.88379114     0.18400
N1494       N  0.01316514  0.08912582  0.89620651    -0.88400
H1495       H  0.88934351  0.07931519  0.90578890     0.35700
H1496       H  0.88653806  0.10363806  0.87159015     0.40800
H1497       H  0.02161728  0.08183502  0.92174174     0.40500
H1498       H  0.02183074  0.11053861  0.89238708     0.35300
C1499       C  0.97784703  0.38009971  0.89817212    -0.26400
C1500       C  0.94920885  0.37430058  0.89725855    -0.14500
C1501       C  0.93277448  0.39780732  0.90621058     0.36200
C1502       C  0.94426119  0.42692997  0.91172309    -0.25800
C1503       C  0.97183020  0.43405781  0.90722381    -0.15100
C1504       C  0.98950621  0.40952581  0.90426272     0.37300
N1505       N  0.01894906  0.41403986  0.90837624    -0.89300
H1506       H  0.99100818  0.36171255  0.89293853     0.18400
H1507       H  0.93061427  0.44495818  0.91665541     0.18400
N1508       N  0.90382601  0.39350695  0.90705603    -0.88400
H1509       H  0.02894311  0.39351071  0.90595868     0.35700
H1510       H  0.02593906  0.42135273  0.93396318     0.40800
H1511       H  0.90178702  0.37642464  0.92570944     0.40500
H1512       H  0.89386354  0.38637621  0.88238881     0.35300
C1513       C  0.97578572  0.53163340  0.40028202     0.29900
C1514       C  0.97718505  0.96887905  0.39970196     0.29900
C1515       C  0.95389894  0.51516924  0.37421702    -0.06300
C1516       C  0.00302279  0.51736050  0.39126322    -0.07000
C1517       C  0.97379589  0.51633357  0.43564682    -0.06900
C1518       C  0.95526832  0.98383503  0.37166187    -0.06300
C1519       C  0.00436433  0.98462630  0.39084898    -0.07000
C1520       C  0.97383607  0.98444521  0.43355762    -0.06900
C1521       C  0.94103486  0.97423101  0.33981779    -0.32300
N1522       N  0.93143578  0.99909088  0.32025878     0.14200
C1523       C  0.93874573  0.52407204  0.34231602    -0.32300
H1524       H  0.93668284  0.54712245  0.33184613     0.16100
C1525       C  0.02610468  0.97627336  0.37420659    -0.31300
N1526       N  0.03944603  0.00157644  0.36419598     0.12900
C1527       C  0.02478874  0.52679141  0.37424876    -0.31300
C1528       C  0.98361922  0.97576202  0.46790578    -0.31600
N1529       N  0.98879648  0.50117674  0.49096733     0.13400
H1530       H  0.98983518  0.95295139  0.47675888     0.16000
C1531       C  0.98346891  0.52590725  0.46937569    -0.31600
H1532       H  0.98905887  0.54905308  0.47665633     0.16000
H1533       H  0.02916422  0.54971290  0.36619986     0.16000
H1534       H  0.93934746  0.95102619  0.33099692     0.16100
H1535       H  0.03060222  0.95353899  0.36728252     0.16000
Zr1536     Zr  0.87725236  0.69952243  0.32887451     2.17500
O1537       O  0.85316233  0.67097020  0.36929379    -0.51400
O1538       O  0.87430518  0.66014081  0.28407870    -0.74600
O1539       O  0.82674462  0.70271507  0.30837724    -0.81400
O1540       O  0.94638747  0.67602573  0.38761990    -0.83100
O1541       O  0.81924364  0.74580678  0.27440786    -0.78800
O1542       O  0.90479812  0.65691480  0.36126092    -0.90400
O1543       O  0.90639952  0.67140205  0.24982190    -0.76400
O1544       O  0.87820486  0.72176620  0.27207557    -0.85800
O1545       O  0.92407531  0.69953477  0.32044601    -0.85500
O1546       O  0.86221029  0.75185804  0.33217828    -0.72300
O1547       O  0.90119541  0.72998869  0.37648724    -0.84400
Zr1548     Zr  0.93718631  0.79915739  0.31161253     2.26400
Zr1549     Zr  0.86315028  0.77308268  0.27465591     2.06300
Zr1550     Zr  0.94814997  0.72765491  0.36848034     2.10000
Zr1551     Zr  0.92549012  0.72112457  0.26430506     1.78800
O1552       O  0.95092369  0.72447441  0.43188980    -0.93200
O1553       O  0.90543870  0.72659031  0.20223161    -0.41000
O1554       O  0.95266032  0.74802703  0.31157825    -0.77700
O1555       O  0.91006673  0.77219508  0.26414656    -0.96400
O1556       O  0.89014547  0.80317727  0.31924543    -0.89700
O1557       O  0.93508086  0.77923083  0.36871503    -0.92500
C1558       C  0.88787688  0.65392076  0.25943845     1.01200
C1559       C  0.92962417  0.65394155  0.37949274     1.14200
C1560       C  0.81056756  0.72189328  0.28919002     1.05000
O1561       O  0.84814682  0.76378462  0.21237001    -0.94700
O1562       O  0.87111462  0.82262581  0.24862947    -0.90400
O1563       O  0.91481477  0.83904618  0.27192596    -0.83600
C1564       C  0.89088972  0.84242218  0.25220353     1.11600
O1565       O  0.85275371  0.77183392  0.41099020    -0.96600
Zr1566     Zr  0.88873386  0.78348007  0.37622003     1.88900
O1567       O  0.94290046  0.84062569  0.35048370    -0.73300
O1568       O  0.82564783  0.80917021  0.27432600    -0.52500
O1569       O  0.85207494  0.82129017  0.36296130    -0.97200
O1570       O  0.90552004  0.78029679  0.43937277    -0.54400
O1571       O  0.91496528  0.83187314  0.39088343    -0.73800
C1572       C  0.93356050  0.84753083  0.37797326     0.98500
O1573       O  0.97070248  0.81883337  0.27675790    -0.62600
O1574       O  0.99102647  0.70131198  0.36611048    -0.57400
O1575       O  0.98495035  0.79309368  0.34220939    -0.94100
O1576       O  0.98795550  0.75898202  0.38766585    -0.92500
O1577       O  0.96520539  0.68786111  0.26558827    -0.92900
O1578       O  0.96101283  0.73947269  0.23187432    -0.91700
C1579       C  0.99874962  0.77821102  0.36875484     1.17400
H1580       H  0.93150895  0.67937709  0.31999219     0.33300
H1581       H  0.91145616  0.78205351  0.24187335     0.44200
H1582       H  0.94720125  0.78958624  0.38715340     0.37700
H1583       H  0.84358512  0.75219441  0.33720441     0.34200
H1584       H  0.91559243  0.71178209  0.19044780     0.26000
H1585       H  0.81222887  0.80507523  0.25254874     0.31900
H1586       H  0.85897262  0.83887238  0.37761166     0.37800
H1587       H  0.96118041  0.66926136  0.27878098     0.32300
H1588       H  0.99735358  0.69259885  0.38998616     0.31200
H1589       H  0.97064661  0.71982234  0.44124753     0.32800
H1590       H  0.89991092  0.79971731  0.44841734     0.31800
H1591       H  0.96448234  0.76083492  0.23903997     0.35800
H1592       H  0.96019360  0.82193369  0.25263071     0.28500
H1593       H  0.84150290  0.65591307  0.35461969     0.32800
H1594       H  0.84836311  0.79141382  0.42080527     0.35600
H1595       H  0.98551036  0.68364531  0.35098906     0.28200
H1596       H  0.97537504  0.83959206  0.28544141     0.41100
H1597       H  0.86214718  0.77431879  0.20066906     0.31200
H1598       H  0.88648291  0.71786302  0.20026461     0.38800
H1599       H  0.92598949  0.78192228  0.44200633     0.30600
H1600       H  0.81607330  0.80235074  0.29366821     0.30700
H1601       H  0.83987458  0.68548719  0.37617848     0.31000
C1602       C  0.87817458  0.52994199  0.20394761     0.29900
C1603       C  0.88068664  0.96744660  0.20147755     0.29900
C1604       C  0.84955446  0.51325712  0.19499259    -0.06300
C1605       C  0.89411833  0.51524667  0.17680554    -0.07000
C1606       C  0.89098094  0.51408592  0.23863409    -0.06900
C1607       C  0.85179244  0.98174551  0.19325313    -0.06300
C1608       C  0.89591981  0.98329678  0.17397088    -0.07000
C1609       C  0.89427684  0.98331388  0.23465501    -0.06900
C1610       C  0.82509057  0.97028157  0.18776066    -0.32300
N1611       N  0.80724771  0.99386192  0.18255902     0.14200
C1612       C  0.82145578  0.52024810  0.18683094    -0.32300
H1613       H  0.81232916  0.54251175  0.18168832     0.16100
C1614       C  0.91967676  0.97598773  0.16132069    -0.31300
N1615       N  0.93048892  0.00117319  0.14768606     0.12900
C1616       C  0.91443716  0.52531183  0.15803997    -0.31300
C1617       C  0.90929028  0.97403440  0.26649952    -0.31600
N1618       N  0.91629801  0.99901924  0.28583437     0.13400
H1619       H  0.91487219  0.95093133  0.27474775     0.16000
C1620       C  0.90373781  0.52348790  0.27125086    -0.31600
H1621       H  0.90616945  0.54670684  0.27989874     0.16000
H1622       H  0.91924639  0.54870482  0.15231854     0.16000
H1623       H  0.81903540  0.94656231  0.18886109     0.16100
H1624       H  0.93054948  0.95471935  0.16621503     0.16000
C1625       C  0.02307851  0.53301735  0.11671277     0.29900
C1626       C  0.02317061  0.97093502  0.11516671     0.29900
C1627       C  0.04709430  0.51691502  0.14057706    -0.06300
C1628       C  0.99694053  0.51813905  0.12833761    -0.07000
C1629       C  0.02272481  0.51807148  0.08089407    -0.06900
C1630       C  0.04796964  0.98588184  0.13842432    -0.06300
C1631       C  0.99785475  0.98643782  0.12635926    -0.07000
C1632       C  0.02321380  0.98649867  0.07908142    -0.06900
C1633       C  0.06966573  0.97618382  0.16393694    -0.32300
N1634       N  0.08188518  0.50095885  0.18171658     0.14200
C1635       C  0.06908041  0.52606605  0.16565842    -0.32300
H1636       H  0.07392618  0.54927342  0.17328109     0.16100
C1637       C  0.97176643  0.97732197  0.13185559    -0.31300
N1638       N  0.95583832  0.50211642  0.14025967     0.12900
C1639       C  0.97128307  0.52731128  0.13528951    -0.31300
C1640       C  0.01059272  0.97764539  0.04620353    -0.31600
N1641       N  0.00241091  0.50141442  0.52632674     0.13400
H1642       H  0.00412558  0.95467403  0.03918650     0.16000
C1643       C  0.00990510  0.52682117  0.04738846    -0.31600
H1644       H  0.00404499  0.54979745  0.03882691     0.16000
H1645       H  0.96415685  0.55041908  0.13602189     0.16000
H1646       H  0.07363491  0.95280341  0.17241793     0.16100
H1647       H  0.96365886  0.95433830  0.13076468     0.16000
Zr1648     Zr  0.11938297  0.70375577  0.18367810     2.17500
O1649       O  0.13534084  0.67628222  0.13704581    -0.51400
O1650       O  0.13119788  0.66105174  0.22631596    -0.74600
O1651       O  0.16907125  0.71575437  0.18023929    -0.81400
O1652       O  0.04740040  0.67008455  0.17424916    -0.83100
O1653       O  0.17868698  0.76538639  0.19440186    -0.78800
O1654       O  0.08852433  0.66229925  0.15671360    -0.90400
O1655       O  0.12876571  0.67783713  0.28068191    -0.76400
O1656       O  0.14093375  0.73535736  0.23077377    -0.85800
O1657       O  0.08923636  0.69914935  0.22607599    -0.85500
O1658       O  0.11980578  0.75572108  0.16106041    -0.72300
O1659       O  0.07424530  0.72205492  0.15507873    -0.84400
Zr1660     Zr  0.06515370  0.79870270  0.22233337     2.26400
Zr1661     Zr  0.13827179  0.78785436  0.20996418     2.06300
Zr1662     Zr  0.04533073  0.71923791  0.19932933     2.10000
Zr1663     Zr  0.11198450  0.72977286  0.27292637     1.78800
O1664       O  0.00047303  0.72994277  0.16260357    -0.93200
O1665       O  0.16098895  0.73889951  0.29727161    -0.41000
O1666       O  0.07200043  0.74878546  0.23899058    -0.77700
O1667       O  0.11017131  0.78197176  0.25411777    -0.96400
O1668       O  0.09418307  0.80537802  0.17998764    -0.89700
O1669       O  0.04403351  0.76958925  0.17395708    -0.92500
C1670       C  0.13177212  0.65670996  0.25955760     1.01200
C1671       C  0.06347072  0.65412508  0.15946253     1.14200
C1672       C  0.18549614  0.73933703  0.18473124     1.05000
O1673       O  0.17773431  0.79847123  0.25612660    -0.94700
O1674       O  0.13294009  0.83815242  0.23572549    -0.90400
O1675       O  0.09267627  0.83503895  0.25729425    -0.83600
C1676       C  0.11491580  0.84874073  0.25294717     1.11600
O1677       O  0.08110029  0.75007477  0.07805272    -0.96600
Zr1678     Zr  0.07503675  0.77364777  0.13256979     1.88900
O1679       O  0.04765690  0.83628189  0.17715254    -0.73300
O1680       O  0.15459833  0.82318000  0.16838291    -0.52500
O1681       O  0.10428429  0.80415470  0.09995026    -0.97200
O1682       O  0.03114889  0.76339836  0.09361073    -0.54400
O1683       O  0.05414953  0.82378852  0.12299859    -0.73800
C1684       C  0.04596584  0.84206701  0.14429844     0.98500
O1685       O  0.03521025  0.83896665  0.23790301    -0.62600
O1686       O  0.01039792  0.68672443  0.21958547    -0.57400
O1687       O  0.02622340  0.77840713  0.24608730    -0.94100
O1688       O  0.03489647  0.72977507  0.25721920    -0.92500
O1689       O  0.09003989  0.70389568  0.31716340    -0.92900
O1690       O  0.10978770  0.75298658  0.32893928    -0.91700
C1691       C  0.02965552  0.75607653  0.26770997     1.17400
H1692       H  0.08530143  0.67872539  0.23356867     0.33300
H1693       H  0.11802180  0.79266386  0.27515754     0.44200
H1694       H  0.02567444  0.77726432  0.16461987     0.37700
H1695       H  0.13205757  0.75687195  0.14397518     0.34200
H1696       H  0.16107004  0.75113879  0.31843904     0.26000
H1697       H  0.17299060  0.83026480  0.18065111     0.31900
H1698       H  0.10735212  0.82358611  0.11252757     0.37800
H1699       H  0.10461346  0.69113177  0.33137872     0.32300
H1700       H  0.99936387  0.67795164  0.19817134     0.31200
H1701       H  0.99887700  0.71497424  0.14363076     0.32800
H1702       H  0.01769678  0.77785278  0.10024333     0.31800
H1703       H  0.09528752  0.76873153  0.32341224     0.35800
H1704       H  0.01667278  0.83090864  0.24042078     0.28500
H1705       H  0.15263153  0.66593756  0.14836942     0.32800
H1706       H  0.07387164  0.76494956  0.05909029     0.35600
H1707       H  0.02088223  0.66944589  0.23216893     0.28200
H1708       H  0.04342242  0.84746363  0.26085613     0.41100
H1709       H  0.16965674  0.80069144  0.27764406     0.31200
H1710       H  0.16835227  0.71888975  0.30657510     0.38800
H1711       H  0.02515596  0.74322207  0.10153856     0.30600
H1712       H  0.15880654  0.81035448  0.14933457     0.30700
H1713       H  0.14139709  0.69215378  0.12139436     0.31000
C1714       C  0.12215161  0.53089529  0.30529102     0.32100
C1715       C  0.11875900  0.96867338  0.30377452     0.29900
C1716       C  0.14910524  0.51344758  0.32252271    -0.06300
C1717       C  0.09901529  0.51687289  0.32397276    -0.07000
C1718       C  0.11599289  0.51601202  0.26888493    -0.06900
C1719       C  0.14716836  0.98147260  0.32104310    -0.06300
C1720       C  0.09788835  0.98524017  0.32186283    -0.07000
C1721       C  0.11520886  0.98453663  0.26709829    -0.06900
C1722       C  0.17314470  0.97007413  0.31942067    -0.32300
N1723       N  0.19169638  0.99292501  0.31961594     0.14200
C1724       C  0.17693830  0.51906973  0.32022952    -0.32300
H1725       H  0.18557841  0.54071282  0.31355621     0.16100
C1726       C  0.07550185  0.97646907  0.33731471    -0.31300
N1727       N  0.06293797  0.00170332  0.34673421     0.12900
C1728       C  0.07690350  0.52678435  0.33934377    -0.31300
C1729       C  0.10748182  0.97578547  0.23260298    -0.31600
N1730       N  0.10183733  0.00079589  0.21170908     0.13400
H1731       H  0.10415507  0.95299087  0.22330375     0.16000
C1732       C  0.10763638  0.52557353  0.23419409    -0.31600
H1733       H  0.10470022  0.54871686  0.22454987     0.16000
H1734       H  0.07183392  0.55024080  0.34292602     0.16000
H1735       H  0.17767918  0.94692140  0.31409155     0.16100
H1736       H  0.06882769  0.95325825  0.34090603     0.16000
C1737       C  0.51682004  0.78226893  0.09431785     0.29900
C1738       C  0.51046161  0.71981505  0.09280441     0.29900
C1739       C  0.54230195  0.76328423  0.10971141    -0.06300
C1740       C  0.49372316  0.76908408  0.11394126    -0.07000
C1741       C  0.50780577  0.76852750  0.05772694    -0.06900
C1742       C  0.53898336  0.73197943  0.10965299    -0.06300
C1743       C  0.49037699  0.73716517  0.11283979    -0.07000
C1744       C  0.50493370  0.73690309  0.05689996    -0.06900
C1745       C  0.55863644  0.72039062  0.13679193    -0.32300
N1746       N  0.57411595  0.74366062  0.15231935     0.14200
C1747       C  0.56446764  0.76977179  0.13570390    -0.32300
H1748       H  0.57079941  0.79223970  0.14456169     0.16100
C1749       C  0.46559894  0.73068132  0.12453462    -0.31300
N1750       N  0.45460134  0.75672438  0.13466386     0.12900
C1751       C  0.47105484  0.78041377  0.12712239    -0.31300
C1752       C  0.49519606  0.72958135  0.02241869    -0.31600
N1753       N  0.49220929  0.75570103  0.00246546     0.13400
H1754       H  0.49060351  0.70689456  0.01277666     0.16000
C1755       C  0.49913163  0.77959935  0.02387982    -0.31600
H1756       H  0.49774593  0.80324764  0.01549853     0.16000
H1757       H  0.46638443  0.80413912  0.12967462     0.16000
H1758       H  0.55927792  0.69725703  0.14697062     0.16100
H1759       H  0.45550190  0.70866313  0.12388084     0.16000
Zr1760     Zr  0.62371650  0.95140330  0.14924371     2.17500
O1761       O  0.64497457  0.93150765  0.10218558    -0.51400
O1762       O  0.63463995  0.90899562  0.19376110    -0.74600
O1763       O  0.67388792  0.96224127  0.16281112    -0.81400
O1764       O  0.55733382  0.92101169  0.09708261    -0.83100
O1765       O  0.67775359  0.50759714  0.19650747    -0.78800
O1766       O  0.59816735  0.90430806  0.12790154    -0.90400
O1767       O  0.60572325  0.91503743  0.23259194    -0.76400
O1768       O  0.63043482  0.97605675  0.20443983    -0.85800
O1769       O  0.58156196  0.94302307  0.17050540    -0.85500
O1770       O  0.62901626  0.50558582  0.14511159    -0.72300
O1771       O  0.58889900  0.97664619  0.10549494    -0.84400
Zr1772     Zr  0.55421485  0.53816514  0.17842048     2.26400
Zr1773     Zr  0.63243268  0.52747404  0.20213955     2.06300
Zr1774     Zr  0.54672904  0.96559184  0.12637536     2.10000
Zr1775     Zr  0.58922665  0.96587685  0.22649142     1.78800
O1776       O  0.52255055  0.97442306  0.06640370    -0.93200
O1777       O  0.63182914  0.96596963  0.27028945    -0.41000
O1778       O  0.55210020  0.98669563  0.18431150    -0.77700
O1779       O  0.58981318  0.51638012  0.22252046    -0.96400
O1780       O  0.59689377  0.55182417  0.16072800    -0.89700
O1781       O  0.55168663  0.51895853  0.12074400    -0.92500
C1782       C  0.62355264  0.89971420  0.22029872     1.01200
C1783       C  0.57375589  0.89970156  0.10961719     1.14200
C1784       C  0.68884987  0.98484720  0.17631855     1.05000
O1785       O  0.65505623  0.52336811  0.26341390    -0.94700
O1786       O  0.62040982  0.57390206  0.23016589    -0.90400
O1787       O  0.57367345  0.57944591  0.21594130    -0.83600
C1788       C  0.59777074  0.58836123  0.23128008     1.11600
O1789       O  0.62210251  0.52422664  0.05868346    -0.96600
Zr1790     Zr  0.59412947  0.53225335  0.10389320     1.88900
O1791       O  0.54379311  0.58242647  0.14241799    -0.73300
O1792       O  0.66217036  0.56937312  0.18871827    -0.52500
O1793       O  0.63025320  0.57110908  0.10531595    -0.97200
O1794       O  0.56811253  0.52920081  0.04419314    -0.54400
O1795       O  0.56597635  0.58045306  0.09600973    -0.73800
C1796       C  0.54951647  0.59366904  0.11386553     0.98500
O1797       O  0.52172532  0.55309523  0.21550869    -0.62600
O1798       O  0.51365773  0.92598319  0.13710931    -0.57400
O1799       O  0.50876707  0.52508793  0.14376216    -0.94100
O1800       O  0.50198874  0.97571590  0.13948813    -0.92500
O1801       O  0.55178050  0.93679105  0.24569075    -0.92900
O1802       O  0.57945048  0.97780525  0.28417980    -0.91700
C1803       C  0.49495265  0.50063402  0.14688557     1.17400
H1804       H  0.57675680  0.92194687  0.17385323     0.33300
H1805       H  0.58981544  0.52562210  0.24494158     0.44200
H1806       H  0.53725101  0.52748218  0.10293457     0.37700
H1807       H  0.64611735  0.50923879  0.13643687     0.34200
H1808       H  0.63294426  0.98631026  0.28087198     0.26000
H1809       H  0.67897589  0.56805984  0.20720154     0.31900
H1810       H  0.62140777  0.59025589  0.11034761     0.37800
H1811       H  0.54753099  0.92035285  0.22846778     0.32300
H1812       H  0.51113367  0.91250152  0.11665705     0.31200
H1813       H  0.50542921  0.98536515  0.06878848     0.32800
H1814       H  0.54958547  0.53765373  0.04506327     0.31800
H1815       H  0.58370444  0.49297750  0.29351316     0.35800
H1816       H  0.53290550  0.55705739  0.23892861     0.28500
H1817       H  0.66075310  0.91906497  0.11415364     0.32800
H1818       H  0.62127294  0.54355372  0.04485349     0.35600
H1819       H  0.52358203  0.91357655  0.15699172     0.28200
H1820       H  0.51477937  0.57324298  0.20615165     0.41100
H1821       H  0.66905864  0.50718463  0.26409185     0.31200
H1822       H  0.62822311  0.95174674  0.28924302     0.38800
H1823       H  0.56472872  0.50718263  0.04043573     0.30600
H1824       H  0.66854913  0.56354235  0.16693023     0.30700
H1825       H  0.65367694  0.94944988  0.09242378     0.31000
C1826       C  0.62580573  0.77329919  0.27140182     0.29900
C1827       C  0.61699605  0.71138398  0.27669939     0.29900
C1828       C  0.65207801  0.75359928  0.28413502    -0.06300
C1829       C  0.60524439  0.76302312  0.29669138    -0.07000
C1830       C  0.61247519  0.75740150  0.23784435    -0.06900
C1831       C  0.64759798  0.72198415  0.28601938    -0.06300
C1832       C  0.60163420  0.73135581  0.29952578    -0.07000
C1833       C  0.60873243  0.72624625  0.23991779    -0.06900
C1834       C  0.67256920  0.70862213  0.28265404    -0.32300
N1835       N  0.69236538  0.73034525  0.28234444     0.14200
C1836       C  0.68008929  0.75786423  0.28274729    -0.32300
H1837       H  0.69043256  0.77946556  0.28011422     0.16100
C1838       C  0.57863125  0.72591755  0.31515731    -0.31300
N1839       N  0.56721189  0.75276149  0.32184228     0.12900
C1840       C  0.58261456  0.77551759  0.30960409    -0.31300
C1841       C  0.59610600  0.71720664  0.20686050    -0.31600
N1842       N  0.59109520  0.74234792  0.18578339     0.13400
H1843       H  0.58991049  0.69436748  0.19909198     0.16000
C1844       C  0.60086681  0.76695642  0.20459316    -0.31600
H1845       H  0.59866223  0.79034955  0.19548546     0.16000
H1846       H  0.57644432  0.79908275  0.30768040     0.16000
H1847       H  0.67570868  0.68507989  0.27731271     0.16100
H1848       H  0.56977327  0.70369515  0.31880307     0.16000
C1849       C  0.48181581  0.78986290  0.37338831     0.29900
C1850       C  0.48084419  0.72704264  0.37499855     0.29900
C1851       C  0.45544436  0.77437953  0.35382496    -0.06300
C1852       C  0.50551378  0.77420358  0.35759465    -0.07000
C1853       C  0.48537853  0.77405565  0.41042531    -0.06900
C1854       C  0.45443873  0.74304606  0.35543757    -0.06300
C1855       C  0.50432074  0.74233706  0.35844573    -0.07000
C1856       C  0.48400226  0.74217295  0.41097208    -0.06900
C1857       C  0.43011988  0.73430465  0.33371986    -0.32300
N1858       N  0.41780759  0.75923840  0.31678789     0.14200
C1859       C  0.43280527  0.78397961  0.32949206    -0.32300
H1860       H  0.42918059  0.80700152  0.31944964     0.16100
C1861       C  0.52661751  0.73165724  0.34494219    -0.31300
N1862       N  0.54211522  0.75554658  0.33587311     0.12900
C1863       C  0.52974246  0.78165860  0.34403622    -0.31300
C1864       C  0.48443279  0.73297242  0.44535205    -0.31600
N1865       N  0.48876545  0.75756247  0.46608266     0.13400
H1866       H  0.48121905  0.71024810  0.45483327     0.16000
C1867       C  0.48941810  0.78283677  0.44518352    -0.31600
H1868       H  0.49285614  0.80580083  0.45446281     0.16000
H1869       H  0.53811727  0.80427778  0.34133143     0.16000
H1870       H  0.42290383  0.71134816  0.32836375     0.16100
H1871       H  0.53130938  0.70790874  0.34272588     0.16000
Zr1872     Zr  0.37576840  0.95824273  0.31855062     2.17500
O1873       O  0.36259255  0.93083824  0.36865057    -0.51400
O1874       O  0.36638718  0.91721397  0.27483036    -0.74600
O1875       O  0.32481701  0.96233205  0.31742739    -0.81400
O1876       O  0.45237500  0.93275764  0.34282285    -0.83100
O1877       O  0.31267599  0.51171162  0.30187246    -0.78800
O1878       O  0.40798962  0.91572560  0.34090502    -0.90400
O1879       O  0.38047720  0.93376496  0.22452595    -0.76400
O1880       O  0.35761281  0.98681422  0.26624587    -0.85800
O1881       O  0.41120345  0.95947078  0.28388196    -0.85500
O1882       O  0.36915380  0.50931643  0.33738757    -0.72300
O1883       O  0.41481712  0.98396792  0.35378696    -0.84400
Zr1884     Zr  0.42464464  0.55962191  0.27890393     2.26400
Zr1885     Zr  0.35126034  0.53861726  0.28506362     2.06300
Zr1886     Zr  0.45040533  0.98341826  0.31850322     2.10000
Zr1887     Zr  0.39255464  0.98640569  0.23095585     1.78800
O1888       O  0.48498644  0.97991659  0.37203367    -0.93200
O1889       O  0.34719605  0.98853277  0.19265886    -0.41000
O1890       O  0.43053572  0.50845456  0.26223256    -0.77700
O1891       O  0.38358581  0.53714399  0.24548181    -0.96400
O1892       O  0.39157368  0.56318863  0.31676202    -0.89700
O1893       O  0.44311799  0.53246688  0.33182147    -0.92500
C1894       C  0.37161125  0.91318044  0.24362315     1.01200
C1895       C  0.43469950  0.91192500  0.34669933     1.14200
C1896       C  0.30716023  0.98439347  0.31091198     1.05000
O1897       O  0.31207894  0.54228790  0.23669161    -0.94700
O1898       O  0.35042903  0.58799660  0.25458723    -0.90400
O1899       O  0.39476735  0.59701570  0.24706771    -0.83600
C1900       C  0.36916277  0.60381606  0.24271746     1.11600
O1901       O  0.39919540  0.51433536  0.42420022    -0.96600
Zr1902     Zr  0.40971555  0.53475845  0.36886490     1.88900
O1903       O  0.43908534  0.59653286  0.32148061    -0.73300
O1904       O  0.33039102  0.57303817  0.32129466    -0.52500
O1905       O  0.37576616  0.56437431  0.39255355    -0.97200
O1906       O  0.45147557  0.52613247  0.41269308    -0.54400
O1907       O  0.43213040  0.58581291  0.37629806    -0.73800
C1908       C  0.44059061  0.60354994  0.35327159     0.98500
O1909       O  0.44635344  0.59521965  0.24150484    -0.62600
O1910       O  0.47528345  0.95095896  0.28436996    -0.57400
O1911       O  0.47378552  0.55832535  0.27902611    -0.94100
O1912       O  0.48796531  0.01812590  0.31132190    -0.92500
O1913       O  0.42645943  0.96599980  0.19878606    -0.92900
O1914       O  0.39889738  0.00802632  0.17432873    -0.91700
C1915       C  0.48355294  0.53197857  0.27759799     1.17400
H1916       H  0.41649754  0.93921020  0.27899415     0.33300
H1917       H  0.37672684  0.54826515  0.22398083     0.44200
H1918       H  0.46030576  0.54151634  0.34329081     0.37700
H1919       H  0.35555099  0.50875691  0.35274772     0.34200
H1920       H  0.35008876  0.97947126  0.17042809     0.26000
H1921       H  0.31264443  0.57928031  0.30643805     0.31900
H1922       H  0.37697012  0.58510465  0.38232221     0.37800
H1923       H  0.43792357  0.95202268  0.21568037     0.32300
H1924       H  0.48840122  0.93910495  0.30191570     0.31200
H1925       H  0.50196383  0.97260143  0.36432531     0.32800
H1926       H  0.46577850  0.54009241  0.40598054     0.31800
H1927       H  0.38349673  0.52843721  0.17130073     0.35800
H1928       H  0.43435712  0.59679088  0.21806331     0.28500
H1929       H  0.34718415  0.91710603  0.35859178     0.32800
H1930       H  0.40650891  0.52959103  0.44199121     0.35600
H1931       H  0.46177794  0.93562572  0.27331826     0.28200
H1932       H  0.44584158  0.61560672  0.25159890     0.41100
H1933       H  0.31615045  0.52743223  0.21952565     0.31200
H1934       H  0.33543373  0.97340920  0.20268187     0.38800
H1935       H  0.45769432  0.50557943  0.40786294     0.30600
H1936       H  0.32482032  0.56006157  0.34018049     0.30700
H1937       H  0.35384840  0.94629896  0.38127752     0.31000
C1938       C  0.37261073  0.79000281  0.19423754     0.29900
C1939       C  0.37279900  0.72748959  0.19528951     0.29900
C1940       C  0.34420554  0.77418517  0.17924956    -0.06300
C1941       C  0.39378320  0.77467951  0.17352359    -0.07000
C1942       C  0.37961903  0.77437236  0.23063187    -0.06900
C1943       C  0.34541011  0.74248751  0.17837407    -0.06300
C1944       C  0.39395398  0.74268099  0.17485822    -0.07000
C1945       C  0.38064789  0.74311668  0.23090594    -0.06900
C1946       C  0.31877092  0.73085655  0.17294242    -0.32300
N1947       N  0.30073721  0.75367503  0.17323928     0.14200
C1948       C  0.31591403  0.77986675  0.17892056    -0.32300
H1949       H  0.30718148  0.80050096  0.18667889     0.16100
C1950       C  0.41699393  0.73350583  0.16167486    -0.31300
N1951       N  0.42998973  0.75814883  0.14982326     0.12900
C1952       C  0.41628500  0.78352038  0.15734392    -0.31300
C1953       C  0.39339854  0.73380529  0.26413559    -0.31600
N1954       N  0.39894455  0.75860536  0.28453578     0.13400
H1955       H  0.40008886  0.71089479  0.27175184     0.16000
C1956       C  0.38988937  0.78345405  0.26450407    -0.31600
H1957       H  0.39258601  0.80657332  0.27331546     0.16000
H1958       H  0.42272454  0.80666282  0.15276998     0.16000
H1959       H  0.31306391  0.70698751  0.17282804     0.16100
H1960       H  0.42490926  0.71068143  0.16287460     0.16000
C1961       C  0.39604605  0.86707618  0.23271181    -0.26400
C1962       C  0.37066708  0.88237918  0.22911794    -0.14500
C1963       C  0.34762744  0.87096906  0.20552758     0.36200
C1964       C  0.34992096  0.84293733  0.18943552    -0.25800
C1965       C  0.37392690  0.82490758  0.19806917    -0.15100
C1966       C  0.39806514  0.83899867  0.21689638     0.37300
N1967       N  0.42449004  0.82426046  0.22149735    -0.89300
H1968       H  0.41457660  0.87702514  0.24804364     0.18400
H1969       H  0.33266138  0.83550685  0.17019849     0.18400
N1970       N  0.32182312  0.88713476  0.19698551    -0.88400
H1971       H  0.43227855  0.82197953  0.24836717     0.35700
H1972       H  0.43812715  0.83856198  0.21063699     0.40800
H1973       H  0.32248019  0.90738568  0.21064650     0.40500
H1974       H  0.30646066  0.87354175  0.20538957     0.35300
C1975       C  0.37388095  0.63927930  0.19377647    -0.26400
C1976       C  0.36227736  0.63264497  0.22389789    -0.14500
C1977       C  0.34995141  0.65590575  0.23962416     0.36200
C1978       C  0.35251746  0.68559022  0.22775872    -0.25800
C1979       C  0.36805996  0.69330442  0.20105556    -0.15100
C1980       C  0.37552483  0.66922345  0.18095348     0.37300
N1981       N  0.38142688  0.67338123  0.14616083    -0.89300
H1982       H  0.38188238  0.62096138  0.18025921     0.18400
H1983       H  0.34329722  0.70319926  0.24100306     0.18400
N1984       N  0.33659750  0.65046914  0.26933129    -0.88400
H1985       H  0.40216514  0.66780290  0.14636166     0.35700
H1986       H  0.37730908  0.69546834  0.13646245     0.40800
H1987       H  0.32013812  0.63519834  0.26215716     0.40500
H1988       H  0.35089994  0.64066995  0.28973510     0.35300
C1989       C  0.45826038  0.83614342  0.39308297    -0.26400
C1990       C  0.47593539  0.82449227  0.37108956    -0.14500
C1991       C  0.47792803  0.84190068  0.34031495     0.36200
C1992       C  0.46442632  0.87009790  0.33374889    -0.25800
C1993       C  0.44710518  0.88132005  0.35581087    -0.15100
C1994       C  0.44414475  0.86403431  0.38612211     0.37300
N1995       N  0.42724730  0.87384056  0.41056055    -0.89300
H1996       H  0.45344045  0.82254520  0.41483459     0.18400
H1997       H  0.46659596  0.88285678  0.31004154     0.18400
N1998       N  0.49155789  0.83004919  0.31382908    -0.88400
H1999       H  0.41073555  0.85838818  0.40971817     0.35700
H2000       H  0.41857619  0.89515699  0.40358955     0.40800
H2001       H  0.50687203  0.84566584  0.30921204     0.40500
H2002       H  0.47698324  0.82832960  0.29066553     0.35300
C2003       C  0.46849539  0.68220829  0.33748343    -0.26400
C2004       C  0.47906501  0.69217718  0.37118163    -0.14500
C2005       C  0.48365824  0.66962197  0.39852044     0.36200
C2006       C  0.46962686  0.64120348  0.39357274    -0.25800
C2007       C  0.45306464  0.63435433  0.36107645    -0.15100
C2008       C  0.45253444  0.65573587  0.33273292     0.37300
N2009       N  0.43460807  0.65137922  0.29940161    -0.89300
H2010       H  0.46841047  0.69774378  0.31527141     0.18400
H2011       H  0.47301992  0.62393917  0.41430690     0.18400
N2012       N  0.50554041  0.67270364  0.42834583    -0.88400
H2013       H  0.43681582  0.66905961  0.28150915     0.35700
H2014       H  0.41407973  0.65203357  0.30360892     0.40800
H2015       H  0.51783961  0.69167860  0.42454383     0.40500
H2016       H  0.51884672  0.65419196  0.42882584     0.35300
C2017       C  0.46165644  0.53031739  0.21453168    -0.26400
C2018       C  0.48054937  0.51802366  0.24308396    -0.14500
C2019       C  0.49702151  0.49334585  0.23759032     0.36200
C2020       C  0.49354917  0.48098682  0.20447220    -0.25800
C2021       C  0.48004721  0.49814656  0.17566449    -0.15100
C2022       C  0.46245243  0.52175434  0.18042961     0.37300
N2023       N  0.44792326  0.53871357  0.15068769    -0.89300
H2024       H  0.44717055  0.54736386  0.21839971     0.18400
H2025       H  0.50659282  0.46217108  0.20040531     0.18400
N2026       N  0.52077019  0.48456365  0.26278911    -0.88400
H2027       H  0.43611489  0.55592861  0.15887954     0.35700
H2028       H  0.43401587  0.52383529  0.13577039     0.40800
H2029       H  0.51503560  0.47653357  0.28599682     0.40500
H2030       H  0.53294856  0.50410476  0.26858496     0.35300
C2031       C  0.64313156  0.84682100  0.22165958    -0.26400
C2032       C  0.62998500  0.86908277  0.23784636    -0.14500
C2033       C  0.62094996  0.86084761  0.26990076     0.36200
C2034       C  0.62203146  0.83040849  0.28215872    -0.25800
C2035       C  0.63163005  0.80727971  0.26331610    -0.15100
C2036       C  0.64466597  0.81645475  0.23440413     0.37300
N2037       N  0.65858414  0.79487893  0.21665466    -0.89300
H2038       H  0.65136010  0.85260253  0.19809878     0.18400
H2039       H  0.61506062  0.82511940  0.30653377     0.18400
N2040       N  0.61019392  0.88318949  0.29018769    -0.88400
H2041       H  0.67877331  0.80311935  0.21720535     0.35700
H2042       H  0.64898901  0.79472085  0.19027650     0.40800
H2043       H  0.62232668  0.88305427  0.31531563     0.40500
H2044       H  0.58994044  0.87675225  0.29258286     0.35300
C2045       C  0.58312502  0.66869526  0.25888719    -0.26400
C2046       C  0.60941601  0.67718794  0.27714764    -0.14500
C2047       C  0.62772814  0.65323951  0.29071920     0.36200
C2048       C  0.62335432  0.62420018  0.27593635    -0.25800
C2049       C  0.59961224  0.61767426  0.25069255    -0.15100
C2050       C  0.57831706  0.63994469  0.24440852     0.37300
N2051       N  0.55226063  0.63523950  0.22162398    -0.89300
H2052       H  0.56715944  0.68577109  0.25188066     0.18400
H2053       H  0.63841610  0.60651914  0.28469369     0.18400
N2054       N  0.64796591  0.65614454  0.32229371    -0.88400
H2055       H  0.54171842  0.61723393  0.23168571     0.35700
H2056       H  0.55595040  0.63034671  0.19658154     0.40800
H2057       H  0.64786682  0.67785279  0.33259889     0.40500
H2058       H  0.66770436  0.65136999  0.31715857     0.35300
C2059       C  0.54074199  0.82724060  0.06937137    -0.26400
C2060       C  0.52616628  0.81599456  0.09570278    -0.14500
C2061       C  0.53034697  0.83181151  0.12776142     0.36200
C2062       C  0.54804160  0.85747332  0.13235936    -0.25800
C2063       C  0.56159002  0.86873675  0.10555374    -0.15100
C2064       C  0.55734352  0.85367117  0.07331641     0.37300
N2065       N  0.56976440  0.86419047  0.04412358    -0.89300
H2066       H  0.54094612  0.81456225  0.04593076     0.18400
H2067       H  0.55090805  0.86901295  0.15717960     0.18400
N2068       N  0.51840010  0.82070876  0.15686374    -0.88400
H2069       H  0.58313308  0.84721129  0.03882554     0.35700
H2070       H  0.58206895  0.88354347  0.05028021     0.40800
H2071       H  0.53449784  0.81594974  0.17787403     0.40500
H2072       H  0.50638097  0.83806265  0.16435631     0.35300
C2073       C  0.52803716  0.67159325  0.06856495    -0.26400
C2074       C  0.51271314  0.68462026  0.09248547    -0.14500
C2075       C  0.50940765  0.66641032  0.12210377     0.36200
C2076       C  0.51940707  0.63653258  0.12594095    -0.25800
C2077       C  0.53582246  0.62408633  0.10321643    -0.15100
C2078       C  0.53966284  0.64194730  0.07362983     0.37300
N2079       N  0.55638060  0.63078684  0.04973615    -0.89300
H2080       H  0.53311908  0.68556413  0.04717676     0.18400
H2081       H  0.51576264  0.62384848  0.14904696     0.18400
N2082       N  0.49875616  0.67890644  0.15076974    -0.88400
H2083       H  0.55804285  0.64709230  0.03007800     0.35700
H2084       H  0.54593238  0.61211911  0.03715563     0.40800
H2085       H  0.51429131  0.67777233  0.17312683     0.40500
H2086       H  0.48204946  0.66535393  0.15556484     0.35300
C2087       C  0.26875332  0.50510648  0.33907639    -0.26400
C2088       C  0.27845082  0.98132243  0.31797738    -0.14500
C2089       C  0.25880807  0.96117945  0.29956951     0.36200
C2090       C  0.23026528  0.96522637  0.30034083    -0.25800
C2091       C  0.22100301  0.98923052  0.31890010    -0.15100
C2092       C  0.24046317  0.50870356  0.34013467     0.37300
N2093       N  0.23201560  0.53242849  0.36057310    -0.89300
H2094       H  0.28351839  0.52132841  0.35260563     0.18400
H2095       H  0.21517504  0.95023621  0.28535572     0.18400
N2096       N  0.26773607  0.93747985  0.27927657    -0.88400
H2097       H  0.23877336  0.55320878  0.35123336     0.35700
H2098       H  0.24205421  0.52923662  0.38657620     0.40800
H2099       H  0.27621365  0.94780178  0.25890600     0.40500
H2100       H  0.25071121  0.92451904  0.26745478     0.35300
C2101       C  0.26361807  0.72614977  0.19724799    -0.26400
C2102       C  0.27159299  0.74904044  0.17481148    -0.14500
C2103       C  0.25059857  0.76561767  0.15277247     0.36200
C2104       C  0.22259349  0.76013820  0.15484261    -0.25800
C2105       C  0.21456139  0.73806044  0.17820570    -0.15100
C2106       C  0.23553552  0.72050206  0.19939317     0.37300
N2107       N  0.22949843  0.69803804  0.22466548    -0.89300
H2108       H  0.27950964  0.71301798  0.21406611     0.18400
H2109       H  0.20685819  0.77399210  0.13869388     0.18400
N2110       N  0.25704117  0.78769359  0.12753836    -0.88400
H2111       H  0.23586559  0.67697000  0.21708986     0.35700
H2112       H  0.20825604  0.69609364  0.22479680     0.40800
H2113       H  0.26892601  0.77718378  0.11134842     0.40500
H2114       H  0.26879901  0.80521041  0.14074797     0.35300
C2115       C  0.09232657  0.92458408  0.27597108    -0.26400
C2116       C  0.11430234  0.93417028  0.30165441    -0.14500
C2117       C  0.13354125  0.91175814  0.31750150     0.36200
C2118       C  0.13521487  0.88432876  0.29990719    -0.25800
C2119       C  0.11756266  0.87907678  0.26780078    -0.15100
C2120       C  0.09578851  0.89965431  0.25599441     0.37300
N2121       N  0.07830113  0.89727445  0.22224783    -0.89300
H2122       H  0.07532394  0.93992505  0.26634114     0.18400
H2123       H  0.14933685  0.86671874  0.31194470     0.18400
N2124       N  0.14800704  0.91399013  0.35308595    -0.88400
H2125       H  0.06717910  0.87698298  0.22112479     0.35700
H2126       H  0.09096434  0.89701686  0.20313474     0.40800
H2127       H  0.14365454  0.93447035  0.36402353     0.40500
H2128       H  0.16938860  0.91255813  0.35366198     0.35300
C2129       C  0.14888498  0.61407126  0.30277791    -0.26400
C2130       C  0.13009214  0.62506046  0.27349196    -0.14500
C2131       C  0.10557762  0.60818511  0.26244099     0.36200
C2132       C  0.10143624  0.57996925  0.27832579    -0.25800
C2133       C  0.12284151  0.56596703  0.30207230    -0.15100
C2134       C  0.14518663  0.58482106  0.31771495     0.37300
N2135       N  0.16263813  0.57536947  0.34992137    -0.89300
H2136       H  0.16614098  0.62840043  0.31421671     0.18400
H2137       H  0.08240549  0.56747533  0.26906263     0.18400
N2138       N  0.08447927  0.61979936  0.23511213    -0.88400
H2139       H  0.17747637  0.59213984  0.35843549     0.35700
H2140       H  0.15005960  0.57307055  0.36905693     0.40800
H2141       H  0.06627703  0.62191542  0.24546909     0.40500
H2142       H  0.08092672  0.60379380  0.21523755     0.35300
C2143       C  0.04835987  0.88867762  0.10671499    -0.26400
C2144       C  0.03564096  0.87276723  0.13152588    -0.14500
C2145       C  0.01675040  0.88827981  0.14833353     0.36200
C2146       C  0.01278535  0.91963682  0.14217049    -0.25800
C2147       C  0.02536289  0.93601078  0.11737704    -0.15100
C2148       C  0.04398666  0.92010348  0.09998997     0.37300
N2149       N  0.05968000  0.93607056  0.07704089    -0.89300
H2150       H  0.06342072  0.87706691  0.09442602     0.18400
H2151       H  0.00119610  0.93139171  0.15887070     0.18400
N2152       N  0.00228111  0.87230416  0.17262321    -0.88400
H2153       H  0.07177666  0.92101350  0.06577668     0.35700
H2154       H  0.07357818  0.95071559  0.09233815     0.40800
H2155       H  0.98934302  0.85610314  0.15846163     0.40500
H2156       H  0.98928757  0.88698387  0.18297879     0.35300
C2157       C  0.01893458  0.58192307  0.14725432    -0.26400
C2158       C  0.02823675  0.56738707  0.11974303    -0.14500
C2159       C  0.04980609  0.58199429  0.10505265     0.36200
C2160       C  0.06088050  0.61030474  0.11768771    -0.25800
C2161       C  0.05141253  0.62442375  0.14545102    -0.15100
C2162       C  0.02989544  0.60976190  0.15996558     0.37300
N2163       N  0.01993978  0.62192113  0.18936521    -0.89300
H2164       H  0.00487824  0.57050128  0.16187902     0.18400
H2165       H  0.07741309  0.62086692  0.10623321     0.18400
N2166       N  0.06191300  0.56724881  0.07889230    -0.88400
H2167       H  0.02319064  0.60577610  0.20994248     0.35700
H2168       H  0.99848776  0.62494719  0.18215865     0.40800
H2169       H  0.08307438  0.56422362  0.08864690     0.40500
H2170       H  0.05999748  0.58168180  0.05674019     0.35300
C2171       C  0.75996113  0.47540201  0.15856031    -0.26400
C2172       C  0.77767169  0.99116282  0.18103005    -0.14500
C2173       C  0.76486940  0.00344719  0.20744526     0.36200
C2174       C  0.73621770  0.00012572  0.20576709    -0.25800
C2175       C  0.71957307  0.98441430  0.17837905    -0.15100
C2176       C  0.73097804  0.47250877  0.15712669     0.37300
N2177       N  0.71416054  0.45762856  0.12805842    -0.89300
H2178       H  0.76961351  0.46541819  0.13844513     0.18400
H2179       H  0.72684797  0.01008667  0.22617372     0.18400
N2180       N  0.78061935  0.01848866  0.23700279    -0.88400
H2181       H  0.72654353  0.44931448  0.11102789     0.35700
H2182       H  0.70136508  0.47413953  0.11374750     0.40800
H2183       H  0.78981023  0.03805329  0.22817722     0.40500
H2184       H  0.79626075  0.00383379  0.24926562     0.35300
C2185       C  0.76271457  0.73009269  0.25498551    -0.26400
C2186       C  0.77968783  0.71806153  0.28532301    -0.14500
C2187       C  0.76675194  0.70694115  0.31320833     0.36200
C2188       C  0.73779758  0.71047649  0.31114070    -0.25800
C2189       C  0.72140470  0.72470746  0.28191945    -0.15100
C2190       C  0.73395037  0.73324383  0.25295338     0.37300
N2191       N  0.71799173  0.74527059  0.22116115    -0.89300
H2192       H  0.77202092  0.73808502  0.23297787     0.18400
H2193       H  0.72801279  0.70303697  0.33293931     0.18400
N2194       N  0.78308782  0.69368329  0.34432065    -0.88400
H2195       H  0.70928675  0.76558649  0.22695128     0.35700
H2196       H  0.70196108  0.72987740  0.21230372     0.40800
H2197       H  0.79045869  0.67290045  0.33732970     0.40500
H2198       H  0.77065596  0.68850890  0.36308007     0.35300
C2199       C  0.03756799  0.74813545  0.36705390    -0.26400
C2200       C  0.02930117  0.77789631  0.37241827    -0.14500
C2201       C  0.03935702  0.80007602  0.35141052     0.36200
C2202       C  0.03945919  0.79262841  0.31647258    -0.25800
C2203       C  0.03393266  0.76237290  0.30554794    -0.15100
C2204       C  0.03582292  0.73921886  0.33192524     0.37300
N2205       N  0.03522061  0.70762414  0.32321393    -0.89300
H2206       H  0.03731207  0.73097425  0.38754272     0.18400
H2207       H  0.04294446  0.81035251  0.29822566     0.18400
N2208       N  0.04255140  0.83088066  0.36259227    -0.88400
H2209       H  0.01549581  0.70261461  0.30908563     0.35700
H2210       H  0.03822372  0.69386710  0.34595946     0.40800
H2211       H  0.02818796  0.84424050  0.34570868     0.40500
H2212       H  0.06245365  0.83823573  0.35972559     0.35300
C2213       C  0.90656651  0.61073342  0.23101474    -0.26400
C2214       C  0.88356387  0.62408782  0.24152772    -0.14500
C2215       C  0.85824504  0.60785049  0.23622605     0.36200
C2216       C  0.85673564  0.57896773  0.22124166    -0.25800
C2217       C  0.87978898  0.56477220  0.21075036    -0.15100
C2218       C  0.90567166  0.58126211  0.21784604     0.37300
N2219       N  0.93242960  0.56791170  0.21837452    -0.89300
H2220       H  0.92658296  0.62220590  0.23633440     0.18400
H2221       H  0.83782408  0.56669437  0.22194823     0.18400
N2222       N  0.83369999  0.61964492  0.24634349    -0.88400
H2223       H  0.94085206  0.57650397  0.19710547     0.35700
H2224       H  0.93242853  0.54429131  0.21928490     0.40800
H2225       H  0.82963607  0.64108401  0.23436676     0.40500
H2226       H  0.83714123  0.62181964  0.27359026     0.35300
C2227       C  0.89200821  0.87991149  0.20250933    -0.26400
C2228       C  0.88467318  0.87241315  0.23515579    -0.14500
C2229       C  0.87131968  0.89402252  0.25224446     0.36200
C2230       C  0.86815094  0.92360770  0.23824505    -0.25800
C2231       C  0.87920709  0.93284780  0.20825366    -0.15100
C2232       C  0.88855256  0.90983203  0.18831362     0.37300
N2233       N  0.89251341  0.91577373  0.15305364    -0.89300
H2234       H  0.90043480  0.86256288  0.18806300     0.18400
H2235       H  0.85863960  0.94033413  0.25239398     0.18400
N2236       N  0.86221764  0.88618326  0.28473133    -0.88400
H2237       H  0.87808810  0.90255763  0.13651558     0.35700
H2238       H  0.91226338  0.90809704  0.15078687     0.40800
H2239       H  0.84622939  0.87008791  0.27923875     0.40500
H2240       H  0.85362129  0.90505191  0.29465580     0.35300
C2241       C  0.93823694  0.56979191  0.40289983    -0.26400
C2242       C  0.96655832  0.56497729  0.40043650    -0.14500
C2243       C  0.98336477  0.59068402  0.39767452     0.36200
C2244       C  0.97075357  0.61945696  0.39160126    -0.25800
C2245       C  0.94173430  0.62337778  0.38937287    -0.15100
C2246       C  0.92553427  0.59825878  0.39618702     0.37300
N2247       N  0.89629096  0.60156964  0.39594151    -0.89300
H2248       H  0.92536469  0.55053845  0.40798019     0.18400
H2249       H  0.98379070  0.63887323  0.38799933     0.18400
N2250       N  0.01298545  0.58798193  0.40259263    -0.88400
H2251       H  0.89406363  0.61570921  0.41658415     0.35700
H2252       H  0.88725633  0.58063447  0.40102489     0.40800
H2253       H  0.01982016  0.58009500  0.42835266     0.40500
H2254       H  0.02234106  0.60926925  0.40030892     0.35300
C2255       C  0.97481446  0.88074020  0.39621214    -0.26400
C2256       C  0.94602547  0.87562566  0.39459465    -0.14500
C2257       C  0.92959321  0.89967388  0.40208135     0.36200
C2258       C  0.94139039  0.92867976  0.40672694    -0.25800
C2259       C  0.96927738  0.93499982  0.40277646    -0.15100
C2260       C  0.98675078  0.91006824  0.40122340     0.37300
N2261       N  0.01623971  0.91416582  0.40544778    -0.89300
H2262       H  0.98786051  0.86187242  0.39210264     0.18400
H2263       H  0.92785158  0.94715049  0.41065936     0.18400
N2264       N  0.90049732  0.89592807  0.40242229    -0.88400
H2265       H  0.02603804  0.89333221  0.40405915     0.35700
H2266       H  0.02313548  0.92218394  0.43074537     0.40800
H2267       H  0.89804007  0.87944790  0.42158507     0.40500
H2268       H  0.89075482  0.88820354  0.37792325     0.35300
C2269       C  0.97782426  0.53089869  0.90194289     0.29900
C2270       C  0.97903593  0.96942351  0.90188124     0.29900
C2271       C  0.95622967  0.51438877  0.87562745    -0.06300
C2272       C  0.00533445  0.51665363  0.89352650    -0.07000
C2273       C  0.97540541  0.51560354  0.93709425    -0.06900
C2274       C  0.95655278  0.98395627  0.87404448    -0.06300
C2275       C  0.00576107  0.98534601  0.89202952    -0.07000
C2276       C  0.97621192  0.98534306  0.93578135    -0.06900
C2277       C  0.94109111  0.97397283  0.84294489    -0.32300
N2278       N  0.93066226  0.99862204  0.82345886     0.14200
C2279       C  0.94128576  0.52342611  0.84372090    -0.32300
H2280       H  0.93916190  0.54656616  0.83356687     0.16100
C2281       C  0.02783866  0.97689101  0.87614148    -0.31300
N2282       N  0.04111351  0.00215316  0.86590675     0.12900
C2283       C  0.02684816  0.52592640  0.87593802    -0.31300
C2284       C  0.98625457  0.97694578  0.97019226    -0.31600
N2285       N  0.98970834  0.50091233  0.99260914     0.13400
H2286       H  0.99259627  0.95421072  0.97920853     0.16000
C2287       C  0.98441157  0.52545704  0.97079713    -0.31600
H2288       H  0.98966623  0.54870061  0.97797308     0.16000
H2289       H  0.03101886  0.54877880  0.86744705     0.16000
H2290       H  0.93903579  0.95066064  0.83451390     0.16100
H2291       H  0.03266439  0.95405891  0.86995104     0.16000
Zr2292     Zr  0.87892678  0.69974131  0.83373899     2.17500
O2293       O  0.85474029  0.67166239  0.87449914    -0.51400
O2294       O  0.87619063  0.66018881  0.78889990    -0.74600
O2295       O  0.82791565  0.70300277  0.81361207    -0.81400
O2296       O  0.94837930  0.67546472  0.89007826    -0.83100
O2297       O  0.82071810  0.74651499  0.78060660    -0.78800
O2298       O  0.90626506  0.65679225  0.86526466    -0.90400
O2299       O  0.90855139  0.67121383  0.75502715    -0.76400
O2300       O  0.87825249  0.72284470  0.77712321    -0.85800
O2301       O  0.92522610  0.69899759  0.82274335    -0.85500
O2302       O  0.86411613  0.75163182  0.83951184    -0.72300
O2303       O  0.90499345  0.73157180  0.87471099    -0.84400
Zr2304     Zr  0.93879253  0.79966294  0.81543374     2.26400
Zr2305     Zr  0.86410853  0.77419162  0.78237541     2.06300
Zr2306     Zr  0.95054475  0.72698520  0.87009249     2.10000
Zr2307     Zr  0.92498569  0.72220741  0.76685938     1.78800
O2308       O  0.95677731  0.72318944  0.93388194    -0.93200
O2309       O  0.90034645  0.72471850  0.70632675    -0.41000
O2310       O  0.95405129  0.74846417  0.81322098    -0.77700
O2311       O  0.91010370  0.77321751  0.76895796    -0.96400
O2312       O  0.89254606  0.80384828  0.82633449    -0.89700
O2313       O  0.93872844  0.77882905  0.87276126    -0.92500
C2314       C  0.89019389  0.65364145  0.76477031     1.01200
C2315       C  0.93132161  0.65348892  0.88258075     1.14200
C2316       C  0.81178988  0.72247288  0.79465367     1.05000
O2317       O  0.84732914  0.76851762  0.71974507    -0.94700
O2318       O  0.87065018  0.82344286  0.75558660    -0.90400
O2319       O  0.91535797  0.83874024  0.77509120    -0.83600
C2320       C  0.89082474  0.84255259  0.75706188     1.11600
O2321       O  0.86137481  0.77092180  0.92369699    -0.96600
Zr2322     Zr  0.89306093  0.78192974  0.88283760     1.88900
O2323       O  0.94556303  0.84058426  0.85494728    -0.73300
O2324       O  0.82685838  0.80857596  0.78951160    -0.52500
O2325       O  0.85384665  0.81667652  0.87293058    -0.97200
O2326       O  0.91420052  0.77716277  0.94475752    -0.54400
O2327       O  0.91868200  0.83109730  0.89633742    -0.73800
C2328       C  0.93680940  0.84714422  0.88291768     0.98500
O2329       O  0.97058767  0.82297428  0.78035072    -0.62600
O2330       O  0.99261886  0.70008986  0.86494243    -0.57400
O2331       O  0.98718726  0.79270684  0.84326632    -0.94100
O2332       O  0.99066654  0.75814924  0.88828312    -0.92500
O2333       O  0.96744599  0.69384322  0.76661104    -0.92900
O2334       O  0.95431519  0.74243201  0.72680454    -0.91700
C2335       C  0.00125426  0.77753941  0.86938600     1.17400
H2336       H  0.93257456  0.67877134  0.82185849     0.33300
H2337       H  0.91057271  0.78325440  0.74657022     0.44200
H2338       H  0.95129732  0.78899630  0.89097112     0.37700
H2339       H  0.84570596  0.75182817  0.84530852     0.34200
H2340       H  0.90907300  0.70894616  0.69411738     0.26000
H2341       H  0.81221570  0.80562989  0.76861760     0.31900
H2342       H  0.86203111  0.83682057  0.86863051     0.37800
H2343       H  0.96244908  0.67215028  0.76938096     0.32300
H2344       H  0.99980354  0.69181169  0.88881676     0.31200
H2345       H  0.97711661  0.72449360  0.94205102     0.32800
H2346       H  0.93391100  0.78320473  0.94589728     0.31800
H2347       H  0.95737639  0.76407897  0.73297686     0.35800
H2348       H  0.96086401  0.82221744  0.75567063     0.28500
H2349       H  0.84355027  0.65608171  0.86008489     0.32800
H2350       H  0.86042259  0.78999650  0.93653628     0.35600
H2351       H  0.98633094  0.68212355  0.85066807     0.28200
H2352       H  0.97121966  0.84482805  0.78612626     0.41100
H2353       H  0.82885059  0.77826907  0.71534665     0.31200
H2354       H  0.88152823  0.71656134  0.70730040     0.38800
H2355       H  0.91475023  0.75503711  0.95011891     0.30600
H2356       H  0.81886983  0.79991008  0.80941488     0.30700
H2357       H  0.84096001  0.68602596  0.88052935     0.31000
C2358       C  0.88089371  0.53100793  0.70549299     0.29900
C2359       C  0.88108138  0.96664059  0.70396357     0.29900
C2360       C  0.85204918  0.51495335  0.69624036    -0.06300
C2361       C  0.89651800  0.51615193  0.67815124    -0.07000
C2362       C  0.89366382  0.51466793  0.73992496    -0.06900
C2363       C  0.85218615  0.98083901  0.69349964    -0.06300
C2364       C  0.89771255  0.98276525  0.67806942    -0.07000
C2365       C  0.89301126  0.98251011  0.73792054    -0.06900
C2366       C  0.82548054  0.96929307  0.68681996    -0.32300
N2367       N  0.80751955  0.99278480  0.68123431     0.14200
C2368       C  0.82415520  0.52256835  0.68721165    -0.32300
H2369       H  0.81562242  0.54512937  0.68214160     0.16100
C2370       C  0.92102158  0.97547719  0.66446980    -0.31300
N2371       N  0.93136093  0.00072455  0.65033244     0.12900
C2372       C  0.91660196  0.52576160  0.65888609    -0.31300
C2373       C  0.90767925  0.97328104  0.77009090    -0.31600
N2374       N  0.91457927  0.99830353  0.78946607     0.13400
H2375       H  0.91359087  0.95023595  0.77823647     0.16000
C2376       C  0.90706333  0.52362700  0.77241464    -0.31600
H2377       H  0.91024071  0.54677658  0.78109201     0.16000
H2378       H  0.92145944  0.54898307  0.65258566     0.16000
H2379       H  0.81946821  0.94556238  0.68792928     0.16100
H2380       H  0.93192124  0.95423860  0.66863418     0.16000
C2381       C  0.02403205  0.53204371  0.61505657     0.29900
C2382       C  0.02187177  0.96992290  0.61238128     0.29900
C2383       C  0.04829559  0.51561747  0.63809682    -0.06300
C2384       C  0.99812110  0.51736855  0.62739420    -0.07000
C2385       C  0.02290048  0.51723070  0.57906533    -0.06900
C2386       C  0.04668907  0.98484100  0.63549312    -0.06300
C2387       C  0.99662287  0.98567977  0.62335576    -0.07000
C2388       C  0.02204519  0.98515073  0.57619477    -0.06900
C2389       C  0.06774882  0.97515093  0.66177334    -0.32300
N2390       N  0.08286237  0.49915391  0.67924648     0.14200
C2391       C  0.07041083  0.52444208  0.66312082    -0.32300
H2392       H  0.07535665  0.54758439  0.67093330     0.16100
C2393       C  0.97122463  0.97666334  0.63121011    -0.31300
N2394       N  0.95719672  0.50181740  0.64018805     0.12900
C2395       C  0.97266831  0.52681902  0.63466890    -0.31300
C2396       C  0.00884896  0.97626884  0.54360689    -0.31600
N2397       N  0.00299675  0.50159504  0.02807070     0.13400
H2398       H  0.00197137  0.95336886  0.53682552     0.16000
C2399       C  0.00996809  0.52640587  0.54578419    -0.31600
H2400       H  0.00452202  0.54954188  0.53746993     0.16000
H2401       H  0.96562791  0.54998736  0.63511583     0.16000
H2402       H  0.07122205  0.95183276  0.67081602     0.16100
H2403       H  0.96340853  0.95359947  0.63159880     0.16000
Zr2404     Zr  0.11837172  0.70365387  0.68184319     2.17500
O2405       O  0.13306495  0.67999179  0.63187743    -0.51400
O2406       O  0.13016795  0.66013236  0.72346713    -0.74600
O2407       O  0.16843080  0.71549439  0.68028079    -0.81400
O2408       O  0.04675529  0.66937396  0.67221204    -0.83100
O2409       O  0.17636905  0.76584413  0.69211734    -0.78800
O2410       O  0.08815218  0.66172346  0.65522712    -0.90400
O2411       O  0.12939693  0.67701876  0.77823637    -0.76400
O2412       O  0.14006869  0.73566847  0.72844571    -0.85800
O2413       O  0.08887419  0.69822662  0.72491980    -0.85500
O2414       O  0.11725751  0.75573711  0.65914429    -0.72300
O2415       O  0.07249206  0.72079448  0.65482173    -0.84400
Zr2416     Zr  0.06302410  0.79720589  0.72141135     2.26400
Zr2417     Zr  0.13578990  0.78814664  0.70764211     2.06300
Zr2418     Zr  0.04433961  0.71735216  0.69961874     2.10000
Zr2419     Zr  0.11200388  0.72898767  0.77129859     1.78800
O2420       O  0.99862747  0.72664421  0.66436465    -0.93200
O2421       O  0.16104743  0.73962610  0.79341641    -0.41000
O2422       O  0.07155034  0.74747291  0.73777104    -0.77700
O2423       O  0.10861276  0.78136500  0.75267277    -0.96400
O2424       O  0.09118819  0.80438615  0.67812857    -0.89700
O2425       O  0.04147492  0.76753546  0.67377830    -0.92500
C2426       C  0.13146177  0.65572847  0.75685488     1.01200
C2427       C  0.06299456  0.65360990  0.65745410     1.14200
C2428       C  0.18416144  0.73968914  0.68394364     1.05000
O2429       O  0.17609382  0.80144514  0.75130644    -0.94700
O2430       O  0.12927452  0.83786008  0.73443847    -0.90400
O2431       O  0.08934072  0.83398821  0.75672983    -0.83600
C2432       C  0.11128729  0.84811051  0.75200576     1.11600
O2433       O  0.07919215  0.74506036  0.57971139    -0.96600
Zr2434     Zr  0.07168847  0.77202033  0.63145622     1.88900
O2435       O  0.04667087  0.83583251  0.67692907    -0.73300
O2436       O  0.15124685  0.82333729  0.66528489    -0.52500
O2437       O  0.09651773  0.80217574  0.59311712    -0.97200
O2438       O  0.02775685  0.75993347  0.59357937    -0.54400
O2439       O  0.05062609  0.82220257  0.62219805    -0.73800
C2440       C  0.04383312  0.84115247  0.64384017     0.98500
O2441       O  0.02941223  0.83467864  0.73437296    -0.62600
O2442       O  0.01225951  0.68381457  0.72405743    -0.57400
O2443       O  0.02548199  0.77586355  0.74689854    -0.94100
O2444       O  0.03574909  0.72769446  0.75834161    -0.92500
O2445       O  0.09335676  0.70051625  0.81667338    -0.92900
O2446       O  0.10996837  0.75179898  0.82756267    -0.91700
C2447       C  0.03033104  0.75391019  0.76882033     1.17400
H2448       H  0.08518461  0.67774368  0.73248465     0.33300
H2449       H  0.11653005  0.79227389  0.77347064     0.44200
H2450       H  0.02287260  0.77480523  0.66489757     0.37700
H2451       H  0.12920123  0.75722023  0.64175371     0.34200
H2452       H  0.16127910  0.75941208  0.80517760     0.26000
H2453       H  0.15003462  0.81155892  0.64358004     0.31900
H2454       H  0.08240133  0.80702665  0.57207102     0.37800
H2455       H  0.10967643  0.69205842  0.83275721     0.32300
H2456       H  0.99941754  0.67571328  0.70363998     0.31200
H2457       H  0.99632182  0.71046820  0.64669486     0.32800
H2458       H  0.01395254  0.77375806  0.60052105     0.31800
H2459       H  0.09672674  0.76878232  0.82199134     0.35800
H2460       H  0.01051296  0.82579626  0.73271121     0.28500
H2461       H  0.14825815  0.66607174  0.64224404     0.32800
H2462       H  0.07697496  0.72325396  0.58572492     0.35600
H2463       H  0.02359374  0.66622336  0.73433160     0.28200
H2464       H  0.03478935  0.84230704  0.75837582     0.41100
H2465       H  0.18591734  0.81736750  0.73957374     0.31200
H2466       H  0.16644562  0.72462211  0.81284934     0.38800
H2467       H  0.02263859  0.73947828  0.60177743     0.30600
H2468       H  0.13618876  0.83848401  0.65968468     0.30700
H2469       H  0.14220629  0.69639865  0.61999376     0.31000
C2470       C  0.12187371  0.52950837  0.80306679     0.32100
C2471       C  0.11815805  0.96843171  0.80234285     0.29900
C2472       C  0.14903120  0.51240009  0.81963529    -0.06300
C2473       C  0.09937766  0.51547949  0.82271991    -0.07000
C2474       C  0.11527748  0.51429145  0.76693918    -0.06900
C2475       C  0.14718442  0.98115853  0.81708744    -0.06300
C2476       C  0.09866337  0.98527978  0.82227767    -0.07000
C2477       C  0.11270831  0.98405115  0.76557697    -0.06900
C2478       C  0.17282365  0.96972175  0.81361280    -0.32300
N2479       N  0.19123220  0.99261659  0.81272967     0.14200
C2480       C  0.17631109  0.51850549  0.81548615    -0.32300
H2481       H  0.18441546  0.54029406  0.80831885     0.16100
C2482       C  0.07687563  0.97674480  0.83890544    -0.31300
N2483       N  0.06460579  0.00210881  0.84846621     0.12900
C2484       C  0.07794709  0.52552082  0.83916207    -0.31300
C2485       C  0.10424592  0.97495014  0.73138316    -0.31600
N2486       N  0.09891789  0.99985049  0.71022051     0.13400
H2487       H  0.10063392  0.95201393  0.72252183     0.16000
C2488       C  0.10780817  0.52367344  0.73214331    -0.31600
H2489       H  0.10561912  0.54681875  0.72227891     0.16000
H2490       H  0.07310488  0.54900731  0.84295025     0.16000
H2491       H  0.17709937  0.94654139  0.80811684     0.16100
H2492       H  0.07013369  0.95359694  0.84271862     0.16000
C2493       C  0.51694352  0.78308323  0.59552341     0.29900
C2494       C  0.51087100  0.72056059  0.59379275     0.29900
C2495       C  0.54222642  0.76426355  0.61189543    -0.06300
C2496       C  0.49330905  0.76974169  0.61395769    -0.07000
C2497       C  0.50899098  0.76936388  0.55875871    -0.06900
C2498       C  0.53902826  0.73292514  0.61189835    -0.06300
C2499       C  0.49001420  0.73779647  0.61286124    -0.07000
C2500       C  0.50618383  0.73774297  0.55795997    -0.06900
C2501       C  0.55821408  0.72163181  0.63976672    -0.32300
N2502       N  0.57352317  0.74509993  0.65526546     0.14200
C2503       C  0.56407231  0.77105259  0.63815556    -0.32300
H2504       H  0.57035131  0.79362769  0.64672022     0.16100
C2505       C  0.46481695  0.73151417  0.62371577    -0.31300
N2506       N  0.45363679  0.75772589  0.63319195     0.12900
C2507       C  0.47034516  0.78126093  0.62612440    -0.31300
C2508       C  0.49711187  0.73025503  0.52343016    -0.31600
N2509       N  0.49462091  0.75622422  0.50326137     0.13400
H2510       H  0.49256897  0.70752089  0.51392056     0.16000
C2511       C  0.50113192  0.78026371  0.52463386    -0.31600
H2512       H  0.49991625  0.80386386  0.51605370     0.16000
H2513       H  0.46569535  0.80503130  0.62837454     0.16000
H2514       H  0.55865637  0.69859129  0.65025375     0.16100
H2515       H  0.45450478  0.70961863  0.62282795     0.16000
Zr2516     Zr  0.62226832  0.95317753  0.65146085     2.17500
O2517       O  0.64128596  0.93228141  0.60309272    -0.51400
O2518       O  0.63292865  0.91068559  0.69614151    -0.74600
O2519       O  0.67305528  0.96243467  0.66282858    -0.81400
O2520       O  0.55296205  0.92339883  0.60421033    -0.83100
O2521       O  0.68050463  0.51010273  0.69470434    -0.78800
O2522       O  0.59554285  0.90687752  0.63030114    -0.90400
O2523       O  0.60466868  0.91704749  0.73571501    -0.76400
O2524       O  0.63126824  0.97785606  0.70651539    -0.85800
O2525       O  0.58074617  0.94632841  0.67469192    -0.85500
O2526       O  0.63125985  0.50733875  0.64457083    -0.72300
O2527       O  0.58655226  0.97902781  0.60934333    -0.84400
Zr2528     Zr  0.55754032  0.54072704  0.67872039     2.26400
Zr2529     Zr  0.63585142  0.53107168  0.70065221     2.06300
Zr2530     Zr  0.54493854  0.96965132  0.63242624     2.10000
Zr2531     Zr  0.59091806  0.96885527  0.73086998     1.78800
O2532       O  0.51774643  0.98282491  0.57510283    -0.93200
O2533       O  0.63391506  0.96552993  0.77417955    -0.41000
O2534       O  0.55312340  0.99047694  0.69043273    -0.77700
O2535       O  0.59394905  0.52056108  0.72268243    -0.96400
O2536       O  0.59959994  0.55425075  0.65929740    -0.89700
O2537       O  0.55368895  0.52048044  0.62138093    -0.92500
C2538       C  0.62205183  0.90146778  0.72291014     1.01200
C2539       C  0.57045334  0.90231261  0.61401520     1.14200
C2540       C  0.68890990  0.98441339  0.67649189     1.05000
O2541       O  0.66038967  0.52935158  0.76119660    -0.94700
O2542       O  0.62362814  0.57753487  0.72850967    -0.90400
O2543       O  0.57676331  0.58225877  0.71524769    -0.83600
C2544       C  0.60081219  0.59147953  0.73015373     1.11600
O2545       O  0.62412381  0.52301666  0.55875976    -0.96600
Zr2546     Zr  0.59579291  0.53317252  0.60308075     1.88900
O2547       O  0.54566093  0.58380471  0.64160928    -0.73300
O2548       O  0.66533757  0.57207882  0.68421599    -0.52500
O2549       O  0.63050899  0.57288458  0.59962175    -0.97200
O2550       O  0.56867546  0.52778331  0.54428212    -0.54400
O2551       O  0.56740776  0.58143265  0.59484353    -0.73800
C2552       C  0.55091078  0.59468596  0.61270541     0.98500
O2553       O  0.52537933  0.55562528  0.71626106    -0.62600
O2554       O  0.50942814  0.93147689  0.63870889    -0.57400
O2555       O  0.51204869  0.52496894  0.64721443    -0.94100
O2556       O  0.50349467  0.98107554  0.65445123    -0.92500
O2557       O  0.55406452  0.94065466  0.75255578    -0.92900
O2558       O  0.58377328  0.98608032  0.78786358    -0.91700
C2559       C  0.49924518  0.50124300  0.65543053     1.17400
H2560       H  0.57555890  0.92536030  0.67799240     0.33300
H2561       H  0.59426450  0.53047684  0.74473483     0.44200
H2562       H  0.53886519  0.52888979  0.60402946     0.37700
H2563       H  0.64821198  0.51042872  0.63532936     0.34200
H2564       H  0.62896605  0.95351827  0.79417393     0.26000
H2565       H  0.68191223  0.57204737  0.70310432     0.31900
H2566       H  0.62788370  0.58769607  0.61759683     0.37800
H2567       H  0.54650548  0.92683860  0.73327988     0.32300
H2568       H  0.50355996  0.92258623  0.61528098     0.31200
H2569       H  0.50019565  0.99105847  0.58032568     0.32800
H2570       H  0.55032621  0.53665381  0.54525837     0.31800
H2571       H  0.59387117  0.50072161  0.79536265     0.35800
H2572       H  0.53668389  0.55965121  0.73957733     0.28500
H2573       H  0.65606948  0.91822204  0.61435483     0.32800
H2574       H  0.62183970  0.54087144  0.54243064     0.35600
H2575       H  0.51933894  0.91500511  0.65355440     0.28200
H2576       H  0.51825883  0.57569501  0.70683746     0.41100
H2577       H  0.68026086  0.53194186  0.75954193     0.31200
H2578       H  0.64663800  0.95207990  0.76444857     0.38800
H2579       H  0.56507799  0.50565414  0.54198344     0.30600
H2580       H  0.67219071  0.56480590  0.66331926     0.30700
H2581       H  0.65128853  0.94949251  0.59383085     0.31000
C2582       C  0.62545829  0.77506174  0.77440454     0.29900
C2583       C  0.61757365  0.71299743  0.77921729     0.29900
C2584       C  0.65203748  0.75571120  0.78665235    -0.06300
C2585       C  0.60544880  0.76418513  0.80003765    -0.07000
C2586       C  0.61190442  0.75925768  0.74083575    -0.06900
C2587       C  0.64804975  0.72409485  0.78829759    -0.06300
C2588       C  0.60217174  0.73241450  0.80255675    -0.07000
C2589       C  0.60883856  0.72804236  0.74263299    -0.06900
C2590       C  0.67351565  0.71124506  0.78630041    -0.32300
N2591       N  0.69314420  0.73335898  0.78694774     0.14200
C2592       C  0.68019809  0.76062889  0.78687912    -0.32300
H2593       H  0.69017446  0.78258025  0.78544547     0.16100
C2594       C  0.57915630  0.72651217  0.81805575    -0.31300
N2595       N  0.56753451  0.75316841  0.82494921     0.12900
C2596       C  0.58274835  0.77621552  0.81301038    -0.31300
C2597       C  0.59632204  0.71896394  0.70953690    -0.31600
N2598       N  0.59044409  0.74412212  0.68878159     0.13400
H2599       H  0.59089565  0.69602995  0.70142439     0.16000
C2600       C  0.59967402  0.76883191  0.70777327    -0.31600
H2601       H  0.59682287  0.79223812  0.69889261     0.16000
H2602       H  0.57632731  0.79969196  0.81116664     0.16000
H2603       H  0.67720926  0.68778503  0.78120561     0.16100
H2604       H  0.57036516  0.70418485  0.82133088     0.16000
C2605       C  0.48100776  0.79043330  0.87340839     0.29900
C2606       C  0.47913356  0.72767006  0.87409273     0.29900
C2607       C  0.45505526  0.77559953  0.85215571    -0.06300
C2608       C  0.50513929  0.77459648  0.85874398    -0.07000
C2609       C  0.48320626  0.77423121  0.90998715    -0.06900
C2610       C  0.45345826  0.74430479  0.85341016    -0.06300
C2611       C  0.50354658  0.74268632  0.85907328    -0.07000
C2612       C  0.48130999  0.74245284  0.91010231    -0.06900
C2613       C  0.42928273  0.73629092  0.83098565    -0.32300
N2614       N  0.41777991  0.76158750  0.81397954     0.14200
C2615       C  0.43314177  0.78589972  0.82713893    -0.32300
H2616       H  0.43012770  0.80905727  0.81728233     0.16100
C2617       C  0.52621459  0.73187713  0.84639752    -0.31300
N2618       N  0.54220596  0.75574779  0.83841369     0.12900
C2619       C  0.52988287  0.78187749  0.84647600    -0.31300
C2620       C  0.48121821  0.73303199  0.94431239    -0.31600
N2621       N  0.48585998  0.75739999  0.96533445     0.13400
H2622       H  0.47769671  0.71031298  0.95356800     0.16000
C2623       C  0.48705852  0.78277064  0.94475322    -0.31600
H2624       H  0.49094996  0.80562990  0.95421447     0.16000
H2625       H  0.53870014  0.80437059  0.84459289     0.16000
H2626       H  0.42145441  0.71358370  0.82552404     0.16100
H2627       H  0.53074171  0.70812481  0.84382016     0.16000
Zr2628     Zr  0.37612248  0.95905468  0.81736458     2.17500
O2629       O  0.35917981  0.92892635  0.86305456    -0.51400
O2630       O  0.36836964  0.91965635  0.77169441    -0.74600
O2631       O  0.32478879  0.96392440  0.81240548    -0.81400
O2632       O  0.45208229  0.93342303  0.84696342    -0.83100
O2633       O  0.31046008  0.51128786  0.79006557    -0.78800
O2634       O  0.40740833  0.91629453  0.84133315    -0.90400
O2635       O  0.38634181  0.93704548  0.72447296    -0.76400
O2636       O  0.36179158  0.98830275  0.76449371    -0.85800
O2637       O  0.41450233  0.96095428  0.78749643    -0.85500
O2638       O  0.36495809  0.51118545  0.83135236    -0.72300
O2639       O  0.41356935  0.98350912  0.85696599    -0.84400
Zr2640     Zr  0.42399008  0.56143742  0.77889156     2.26400
Zr2641     Zr  0.34981898  0.53913699  0.77710058     2.06300
Zr2642     Zr  0.45179318  0.98497016  0.82578166     2.10000
Zr2643     Zr  0.40009664  0.98905854  0.73447437     1.78800
O2644       O  0.48334099  0.97712545  0.88134695    -0.93200
O2645       O  0.35974963  0.99292420  0.68737121    -0.41000
O2646       O  0.43249678  0.50999636  0.76477929    -0.77700
O2647       O  0.38524292  0.53803538  0.74187854    -0.96400
O2648       O  0.38790668  0.56472424  0.81227162    -0.89700
O2649       O  0.43954565  0.53503364  0.83344482    -0.92500
C2650       C  0.37541190  0.91630289  0.74133719     1.01200
C2651       C  0.43408145  0.91246624  0.84880473     1.14200
C2652       C  0.30740370  0.98615521  0.80502363     1.05000
O2653       O  0.31552112  0.54006025  0.72315456    -0.94700
O2654       O  0.35021280  0.58931736  0.74897397    -0.90400
O2655       O  0.39513834  0.59878005  0.74438469    -0.83600
C2656       C  0.36944444  0.60556845  0.73884953     1.11600
O2657       O  0.38430985  0.52109991  0.91773092    -0.96600
Zr2658     Zr  0.40332017  0.53763026  0.86616004     1.88900
O2659       O  0.43430515  0.59903530  0.82101964    -0.73300
O2660       O  0.32217976  0.57295166  0.80591357    -0.52500
O2661       O  0.36855481  0.57148585  0.88186909    -0.97200
O2662       O  0.44003831  0.52727938  0.91637124    -0.54400
O2663       O  0.42798661  0.58738045  0.87576459    -0.73800
C2664       C  0.43593061  0.60565449  0.85285566     0.98500
O2665       O  0.44844615  0.59798661  0.74544702    -0.62600
O2666       O  0.47890962  0.95473421  0.79209492    -0.57400
O2667       O  0.47394449  0.56143759  0.78870779    -0.94100
O2668       O  0.49074914  0.01972145  0.82559729    -0.92500
O2669       O  0.44054690  0.96815568  0.71507291    -0.92900
O2670       O  0.41076167  0.00983483  0.67958056    -0.91700
C2671       C  0.48482993  0.53561846  0.78763814     1.17400
H2672       H  0.42002245  0.94075913  0.78253570     0.33300
H2673       H  0.37967055  0.54900823  0.71986695     0.44200
H2674       H  0.45590803  0.54452477  0.84659197     0.37700
H2675       H  0.35016647  0.51067895  0.84497222     0.34200
H2676       H  0.36259789  0.97716622  0.67052146     0.26000
H2677       H  0.30344852  0.57270030  0.79110189     0.31900
H2678       H  0.36965892  0.59025046  0.86748688     0.37800
H2679       H  0.43869675  0.94581135  0.71766718     0.32300
H2680       H  0.49134094  0.94230775  0.80982748     0.31200
H2681       H  0.50158933  0.97312676  0.87470231     0.32800
H2682       H  0.45754217  0.53329296  0.90845769     0.31800
H2683       H  0.39635187  0.49856181  0.65628376     0.35800
H2684       H  0.43763313  0.60053508  0.72137561     0.28500
H2685       H  0.34233847  0.91814849  0.85116309     0.32800
H2686       H  0.39125584  0.53609305  0.93599001     0.35600
H2687       H  0.46599212  0.93973340  0.77922867     0.28200
H2688       H  0.44776340  0.61797748  0.75635443     0.41100
H2689       H  0.31546742  0.51919705  0.71411994     0.31200
H2690       H  0.34379579  0.98521889  0.69766962     0.38800
H2691       H  0.44084879  0.50480808  0.91851807     0.30600
H2692       H  0.31981195  0.56209773  0.82790525     0.30700
H2693       H  0.35227268  0.94401385  0.87795141     0.31000
C2694       C  0.37191873  0.79282342  0.69171339     0.29900
C2695       C  0.37136013  0.73033382  0.69321923     0.29900
C2696       C  0.34311693  0.77734778  0.67722162    -0.06300
C2697       C  0.39259659  0.77694433  0.67077571    -0.07000
C2698       C  0.37901894  0.77737069  0.72820645    -0.06900
C2699       C  0.34401435  0.74553852  0.67666948    -0.06300
C2700       C  0.39245250  0.74501104  0.67248466    -0.07000
C2701       C  0.37952104  0.74607225  0.72863865    -0.06900
C2702       C  0.31738451  0.73409697  0.67262588    -0.32300
N2703       N  0.29956904  0.75703596  0.67331173     0.14200
C2704       C  0.31492928  0.78326815  0.67782259    -0.32300
H2705       H  0.30651279  0.80423890  0.68518613     0.16100
C2706       C  0.41548368  0.73527804  0.65971097    -0.31300
N2707       N  0.42873169  0.75957245  0.64760088     0.12900
C2708       C  0.41519619  0.78523592  0.65456489    -0.31300
C2709       C  0.39256057  0.73670501  0.76161529    -0.31600
N2710       N  0.39881850  0.76146820  0.78183176     0.13400
H2711       H  0.39905825  0.71372417  0.76910365     0.16000
C2712       C  0.39002685  0.78645960  0.76188998    -0.31600
H2713       H  0.39339298  0.80957629  0.77055429     0.16000
H2714       H  0.42189202  0.80822930  0.64972506     0.16000
H2715       H  0.31162787  0.71026140  0.67317752     0.16100
H2716       H  0.42327598  0.71237075  0.66153792     0.16000
C2717       C  0.39846477  0.86970385  0.72843563    -0.26400
C2718       C  0.37366222  0.88599453  0.72534958    -0.14500
C2719       C  0.34987575  0.87512408  0.70263178     0.36200
C2720       C  0.35078262  0.84653377  0.68716919    -0.25800
C2721       C  0.37429788  0.82771662  0.69529742    -0.15100
C2722       C  0.39919502  0.84115831  0.71321251     0.37300
N2723       N  0.42506610  0.82525514  0.71779259    -0.89300
H2724       H  0.41746261  0.87901507  0.74337833     0.18400
H2725       H  0.33276908  0.83918287  0.66907054     0.18400
N2726       N  0.32467600  0.89238290  0.69436067    -0.88400
H2727       H  0.43313542  0.82333780  0.74463089     0.35700
H2728       H  0.43901928  0.83857208  0.70625792     0.40800
H2729       H  0.32645094  0.91311401  0.70718621     0.40500
H2730       H  0.30909324  0.87993287  0.70381929     0.35300
C2731       C  0.37346205  0.64229220  0.69056645    -0.26400
C2732       C  0.36278320  0.63500526  0.72117668    -0.14500
C2733       C  0.35062883  0.65784149  0.73790094     0.36200
C2734       C  0.35241507  0.68775585  0.72632049    -0.25800
C2735       C  0.36695905  0.69608387  0.69887516    -0.15100
C2736       C  0.37403185  0.67242513  0.67789773     0.37300
N2737       N  0.37823171  0.67716702  0.64241326    -0.89300
H2738       H  0.38117791  0.62432377  0.67626475     0.18400
H2739       H  0.34337512  0.70501128  0.74027062     0.18400
N2740       N  0.33807878  0.65170267  0.76814519    -0.88400
H2741       H  0.39871846  0.67176701  0.64088803     0.35700
H2742       H  0.37372780  0.69937417  0.63335898     0.40800
H2743       H  0.32160678  0.63640393  0.76120562     0.40500
H2744       H  0.35282499  0.64166632  0.78786378     0.35300
C2745       C  0.45542892  0.83516585  0.89245482    -0.26400
C2746       C  0.47506016  0.82497074  0.87221501    -0.14500
C2747       C  0.47913718  0.84385126  0.84339556     0.36200
C2748       C  0.46557529  0.87200707  0.83711446    -0.25800
C2749       C  0.44626797  0.88175235  0.85738555    -0.15100
C2750       C  0.44121478  0.86295458  0.88563217     0.37300
N2751       N  0.42214953  0.87111163  0.90815204    -0.89300
H2752       H  0.44922963  0.82042629  0.91248477     0.18400
H2753       H  0.46937800  0.88597293  0.81494583     0.18400
N2754       N  0.49520188  0.83374698  0.81849890    -0.88400
H2755       H  0.40558237  0.85559084  0.90416321     0.35700
H2756       H  0.41381673  0.89268082  0.90189528     0.40800
H2757       H  0.51085051  0.84988200  0.81694161     0.40500
H2758       H  0.48228954  0.83297529  0.79390706     0.35300
C2759       C  0.46619250  0.68290355  0.83672504    -0.26400
C2760       C  0.47691754  0.69285235  0.87033102    -0.14500
C2761       C  0.48064991  0.67047055  0.89788912     0.36200
C2762       C  0.46567693  0.64262484  0.89315293    -0.25800
C2763       C  0.44876146  0.63624612  0.86077589    -0.15100
C2764       C  0.44894901  0.65738825  0.83229362     0.37300
N2765       N  0.43058660  0.65373691  0.79912949    -0.89300
H2766       H  0.46682222  0.69809914  0.81438357     0.18400
H2767       H  0.46859737  0.62538886  0.91393424     0.18400
N2768       N  0.50252799  0.67302249  0.92780635    -0.88400
H2769       H  0.43347630  0.67106860  0.78110355     0.35700
H2770       H  0.41020162  0.65559303  0.80357588     0.40800
H2771       H  0.51522579  0.69170743  0.92419164     0.40500
H2772       H  0.51540592  0.65413396  0.92834439     0.35300
C2773       C  0.46666428  0.53442566  0.72343089    -0.26400
C2774       C  0.48472906  0.52268742  0.75309242    -0.14500
C2775       C  0.50253176  0.49885330  0.74900051     0.36200
C2776       C  0.50102097  0.48655555  0.71605167    -0.25800
C2777       C  0.48680105  0.50213016  0.68634947    -0.15100
C2778       C  0.46877605  0.52569482  0.68981256     0.37300
N2779       N  0.45453566  0.54200444  0.65935017    -0.89300
H2780       H  0.45092590  0.55029492  0.72613739     0.18400
H2781       H  0.51459409  0.46798559  0.71309523     0.18400
N2782       N  0.52494453  0.49008568  0.77630458    -0.88400
H2783       H  0.44202378  0.55898655  0.66665080     0.35700
H2784       H  0.44138520  0.52666471  0.64409610     0.40800
H2785       H  0.51757176  0.48075318  0.79787676     0.40500
H2786       H  0.53613073  0.50982812  0.78449317     0.35300
C2787       C  0.64152645  0.84854932  0.72403815    -0.26400
C2788       C  0.62845784  0.87078899  0.74035446    -0.14500
C2789       C  0.61987557  0.86264157  0.77273008     0.36200
C2790       C  0.62112468  0.83220618  0.78509783    -0.25800
C2791       C  0.63081629  0.80911387  0.76625595    -0.15100
C2792       C  0.64349576  0.81828321  0.73706083     0.37300
N2793       N  0.65731275  0.79667372  0.71919387    -0.89300
H2794       H  0.64944407  0.85428775  0.70024661     0.18400
H2795       H  0.61431496  0.82690343  0.80958060     0.18400
N2796       N  0.60962294  0.88510445  0.79334235    -0.88400
H2797       H  0.67741488  0.80492488  0.71920916     0.35700
H2798       H  0.64741468  0.79629637  0.69294582     0.40800
H2799       H  0.62219531  0.88502009  0.81819289     0.40500
H2800       H  0.58948892  0.87877863  0.79640237     0.35300
C2801       C  0.58426804  0.67009196  0.76053670    -0.26400
C2802       C  0.61037368  0.67878143  0.77914318    -0.14500
C2803       C  0.62909092  0.65508714  0.79203631     0.36200
C2804       C  0.62551483  0.62654213  0.77602746    -0.25800
C2805       C  0.60212589  0.62026775  0.75017897    -0.15100
C2806       C  0.58027387  0.64191169  0.74459187     0.37300
N2807       N  0.55444303  0.63721251  0.72127134    -0.89300
H2808       H  0.56795306  0.68685064  0.75411885     0.18400
H2809       H  0.64082728  0.60902274  0.78435960     0.18400
N2810       N  0.64870406  0.65755341  0.82422006    -0.88400
H2811       H  0.54401906  0.61879424  0.73066344     0.35700
H2812       H  0.55833200  0.63309880  0.69610631     0.40800
H2813       H  0.64814864  0.67904036  0.83498097     0.40500
H2814       H  0.66869699  0.65327077  0.81965772     0.35300
C2815       C  0.54076295  0.82895376  0.57229971    -0.26400
C2816       C  0.52572959  0.81694412  0.59776783    -0.14500
C2817       C  0.52872437  0.83244598  0.63001716     0.36200
C2818       C  0.54500616  0.85911122  0.63512055    -0.25800
C2819       C  0.55896403  0.87113862  0.60909834    -0.15100
C2820       C  0.55663964  0.85588086  0.57714599     0.37300
N2821       N  0.57045159  0.86660620  0.54926706    -0.89300
H2822       H  0.54198540  0.81645098  0.54900664     0.18400
H2823       H  0.54685807  0.87051117  0.65995627     0.18400
N2824       N  0.51725608  0.81999825  0.65891431    -0.88400
H2825       H  0.58464760  0.84995394  0.54545038     0.35700
H2826       H  0.58210412  0.88628034  0.55615894     0.40800
H2827       H  0.53352757  0.81591773  0.67993002     0.40500
H2828       H  0.50431157  0.83633467  0.66661189     0.35300
C2829       C  0.52986406  0.67324255  0.56915323    -0.26400
C2830       C  0.51350429  0.68539214  0.59251291    -0.14500
C2831       C  0.50866544  0.66605138  0.62050159     0.36200
C2832       C  0.51904487  0.63628374  0.62391213    -0.25800
C2833       C  0.53662002  0.62478881  0.60193064    -0.15100
C2834       C  0.54119457  0.64344476  0.57333548     0.37300
N2835       N  0.55828957  0.63287573  0.54956879    -0.89300
H2836       H  0.53581071  0.68790212  0.54886180     0.18400
H2837       H  0.51456632  0.62282531  0.64608469     0.18400
N2838       N  0.49551045  0.67705945  0.64785498    -0.88400
H2839       H  0.56024048  0.64962017  0.53048797     0.35700
H2840       H  0.54791644  0.61452023  0.53621396     0.40800
H2841       H  0.50956221  0.67531638  0.67155328     0.40500
H2842       H  0.47847549  0.66292251  0.64984200     0.35300
C2843       C  0.26786830  0.50365950  0.83110407    -0.26400
C2844       C  0.27830462  0.98336470  0.81094215    -0.14500
C2845       C  0.25946619  0.96105661  0.79536740     0.36200
C2846       C  0.23076468  0.96423467  0.79612200    -0.25800
C2847       C  0.22065510  0.98933696  0.81218922    -0.15100
C2848       C  0.23986177  0.50736624  0.83324358     0.37300
N2849       N  0.23221954  0.52925645  0.85655803    -0.89300
H2850       H  0.28323377  0.51836920  0.84623519     0.18400
H2851       H  0.21627138  0.94756052  0.78318968     0.18400
N2852       N  0.26932766  0.93592239  0.77807487    -0.88400
H2853       H  0.23926064  0.55064351  0.84936802     0.35700
H2854       H  0.24253586  0.52387564  0.88196586     0.40800
H2855       H  0.27722396  0.94465703  0.75643687     0.40500
H2856       H  0.25285718  0.92138855  0.76821280     0.35300
C2857       C  0.26292397  0.72949424  0.69846216    -0.26400
C2858       C  0.27050586  0.75229248  0.67556593    -0.14500
C2859       C  0.24916243  0.76783307  0.65290986     0.36200
C2860       C  0.22123058  0.76132984  0.65456715    -0.25800
C2861       C  0.21352836  0.73924053  0.67817124    -0.15100
C2862       C  0.23489730  0.72283127  0.70022614     0.37300
N2863       N  0.22927084  0.70046666  0.72583685    -0.89300
H2864       H  0.27907317  0.71706459  0.71572433     0.18400
H2865       H  0.20522569  0.77438052  0.63779001     0.18400
N2866       N  0.25519492  0.78983292  0.62737431    -0.88400
H2867       H  0.23648064  0.67956078  0.71893450     0.35700
H2868       H  0.20803460  0.69773146  0.72555414     0.40800
H2869       H  0.26750163  0.77952320  0.61154901     0.40500
H2870       H  0.26643491  0.80778249  0.64040688     0.35300
C2871       C  0.09018387  0.92440884  0.77699872    -0.26400
C2872       C  0.11344528  0.93398502  0.80075324    -0.14500
C2873       C  0.13316999  0.91156132  0.81517255     0.36200
C2874       C  0.13361578  0.88397585  0.79754568    -0.25800
C2875       C  0.11401949  0.87833281  0.76720981    -0.15100
C2876       C  0.09185929  0.89885423  0.75727458     0.37300
N2877       N  0.07207254  0.89582854  0.72544152    -0.89300
H2878       H  0.07308249  0.93991279  0.76855446     0.18400
H2879       H  0.14838778  0.86653412  0.80831279     0.18400
N2880       N  0.14955288  0.91397803  0.84971729    -0.88400
H2881       H  0.06068648  0.87592946  0.72677920     0.35700
H2882       H  0.08286360  0.89443751  0.70450656     0.40800
H2883       H  0.14610212  0.93459496  0.86100547     0.40500
H2884       H  0.17060940  0.91225068  0.84831448     0.35300
C2885       C  0.14851553  0.61284136  0.80001176    -0.26400
C2886       C  0.12963040  0.62397651  0.77087005    -0.14500
C2887       C  0.10506529  0.60706242  0.75999141     0.36200
C2888       C  0.10112890  0.57859717  0.77556814    -0.25800
C2889       C  0.12251229  0.56463701  0.79942686    -0.15100
C2890       C  0.14482806  0.58357596  0.81499519     0.37300
N2891       N  0.16235663  0.57412000  0.84715026    -0.89300
H2892       H  0.16584452  0.62710486  0.81136615     0.18400
H2893       H  0.08215271  0.56603161  0.76623485     0.18400
N2894       N  0.08361657  0.61895305  0.73330831    -0.88400
H2895       H  0.17715987  0.59092478  0.85565341     0.35700
H2896       H  0.14981670  0.57176429  0.86632545     0.40800
H2897       H  0.06563739  0.62081928  0.74420481     0.40500
H2898       H  0.07977544  0.60319827  0.71318827     0.35300
C2899       C  0.04521762  0.88684346  0.60437327    -0.26400
C2900       C  0.03374989  0.87197261  0.63101939    -0.14500
C2901       C  0.01635434  0.88855084  0.64907182     0.36200
C2902       C  0.01268906  0.91980916  0.64212931    -0.25800
C2903       C  0.02376001  0.93505098  0.61528605    -0.15100
C2904       C  0.04108304  0.91821775  0.59689585     0.37300
N2905       N  0.05591882  0.93320017  0.57231146    -0.89300
H2906       H  0.05919552  0.87446848  0.59110220     0.18400
H2907       H  0.00244512  0.93244892  0.65959021     0.18400
N2908       N  0.00300560  0.87376860  0.67524879    -0.88400
H2909       H  0.06720197  0.91755754  0.56066182     0.35700
H2910       H  0.07049477  0.94791841  0.58641864     0.40800
H2911       H  0.98908748  0.85767117  0.66253246     0.40500
H2912       H  0.99113014  0.88919145  0.68635612     0.35300
C2913       C  0.01972657  0.58079963  0.64587954    -0.26400
C2914       C  0.02903100  0.56643205  0.61825244    -0.14500
C2915       C  0.04991299  0.58161653  0.60284621     0.36200
C2916       C  0.06062486  0.61012210  0.61530897    -0.25800
C2917       C  0.05110480  0.62402029  0.64318397    -0.15100
C2918       C  0.02982611  0.60910722  0.65784483     0.37300
N2919       N  0.01918030  0.62160060  0.68657789    -0.89300
H2920       H  0.00626922  0.56909694  0.66109134     0.18400
H2921       H  0.07680060  0.62108807  0.60353017     0.18400
N2922       N  0.06150161  0.56746386  0.57586388    -0.88400
H2923       H  0.02244093  0.60592954  0.70763239     0.35700
H2924       H  0.99771874  0.62419455  0.67882516     0.40800
H2925       H  0.08285584  0.56499313  0.58466328     0.40500
H2926       H  0.05865716  0.58205516  0.55380244     0.35300
C2927       C  0.76260687  0.47628946  0.65925712    -0.26400
C2928       C  0.77791801  0.98991601  0.68008826    -0.14500
C2929       C  0.76540653  0.00171020  0.70703200     0.36200
C2930       C  0.73677118  0.99840963  0.70573899    -0.25800
C2931       C  0.71971762  0.98315879  0.67825339    -0.15100
C2932       C  0.73377690  0.47251814  0.65837689     0.37300
N2933       N  0.71735019  0.45527948  0.63100757    -0.89300
H2934       H  0.77248919  0.46530911  0.63998823     0.18400
H2935       H  0.72770688  0.00816121  0.72652524     0.18400
N2936       N  0.78144504  0.01624263  0.73677269    -0.88400
H2937       H  0.72992988  0.44606260  0.61476184     0.35700
H2938       H  0.70401999  0.47049047  0.61526732     0.40800
H2939       H  0.79049439  0.03603530  0.72829341     0.40500
H2940       H  0.79718218  0.00144388  0.74843156     0.35300
C2941       C  0.76454829  0.73613430  0.76208512    -0.26400
C2942       C  0.78064161  0.71930074  0.78973761    -0.14500
C2943       C  0.76663794  0.70438524  0.81452285     0.36200
C2944       C  0.73770385  0.70882996  0.81256757    -0.25800
C2945       C  0.72238265  0.72804015  0.78671141    -0.15100
C2946       C  0.73605360  0.74083263  0.76051577     0.37300
N2947       N  0.72168775  0.75896215  0.73201334    -0.89300
H2948       H  0.77446660  0.74715550  0.74213590     0.18400
H2949       H  0.72714329  0.69808822  0.83205456     0.18400
N2950       N  0.78184158  0.68601383  0.84249513    -0.88400
H2951       H  0.71581181  0.77908794  0.74219892     0.35700
H2952       H  0.70398653  0.74709393  0.72010889     0.40800
H2953       H  0.78893496  0.66695628  0.83117253     0.40500
H2954       H  0.76868654  0.67778084  0.85920391     0.35300
C2955       C  0.04024633  0.74744633  0.86820545    -0.26400
C2956       C  0.03179418  0.77729484  0.87287938    -0.14500
C2957       C  0.04173772  0.79916160  0.85140293     0.36200
C2958       C  0.04180713  0.79112612  0.81666017    -0.25800
C2959       C  0.03603019  0.76073176  0.80647055    -0.15100
C2960       C  0.03854101  0.73798549  0.83330452     0.37300
N2961       N  0.03868276  0.70627840  0.82528009    -0.89300
H2962       H  0.04002882  0.73055754  0.88899961     0.18400
H2963       H  0.04568200  0.80837863  0.79806488     0.18400
N2964       N  0.04502167  0.83012520  0.86199384    -0.88400
H2965       H  0.01911130  0.70056896  0.81120441     0.35700
H2966       H  0.04189634  0.69290544  0.84831910     0.40800
H2967       H  0.03062300  0.84331198  0.84494245     0.40500
H2968       H  0.06490613  0.83733934  0.85887044     0.35300
C2969       C  0.90910285  0.61117259  0.73512467    -0.26400
C2970       C  0.88626909  0.62368354  0.74701692    -0.14500
C2971       C  0.86119696  0.60702054  0.74197092     0.36200
C2972       C  0.85968567  0.57875545  0.72563504    -0.25800
C2973       C  0.88238928  0.56567548  0.71308896    -0.15100
C2974       C  0.90806723  0.58249763  0.71984214     0.37300
N2975       N  0.93464797  0.56998365  0.71759748    -0.89300
H2976       H  0.92901193  0.62287740  0.74019067     0.18400
H2977       H  0.84107181  0.56593181  0.72668668     0.18400
N2978       N  0.83690082  0.61770966  0.75369242    -0.88400
H2979       H  0.94121254  0.57831921  0.69490349     0.35700
H2980       H  0.93538434  0.54639295  0.72003768     0.40800
H2981       H  0.83210466  0.63933326  0.74258923     0.40500
H2982       H  0.84109159  0.61915384  0.78102930     0.35300
C2983       C  0.89407577  0.87940965  0.70761815    -0.26400
C2984       C  0.88464021  0.87209401  0.73900161    -0.14500
C2985       C  0.86933496  0.89346977  0.75377034     0.36200
C2986       C  0.86661445  0.92289659  0.73925708    -0.25800
C2987       C  0.87952831  0.93204941  0.71072628    -0.15100
C2988       C  0.89063126  0.90897702  0.69250833     0.37300
N2989       N  0.89621168  0.91429384  0.65784616    -0.89300
H2990       H  0.90397869  0.86210964  0.69473496     0.18400
H2991       H  0.85589153  0.93960233  0.75197667     0.18400
N2992       N  0.85797334  0.88569736  0.78471059    -0.88400
H2993       H  0.88259751  0.90060743  0.64083563     0.35700
H2994       H  0.91630580  0.90666011  0.65730284     0.40800
H2995       H  0.84234696  0.86942426  0.77770544     0.40500
H2996       H  0.84833766  0.90451107  0.79325357     0.35300
C2997       C  0.94013618  0.56884387  0.90495547    -0.26400
C2998       C  0.96842813  0.56421790  0.90220647    -0.14500
C2999       C  0.98506332  0.59004940  0.89942953     0.36200
C3000       C  0.97235347  0.61882060  0.89401321    -0.25800
C3001       C  0.94332655  0.62267092  0.89196054    -0.15100
C3002       C  0.92722222  0.59725037  0.89840382     0.37300
N3003       N  0.89797009  0.60013990  0.89844792    -0.89300
H3004       H  0.92738209  0.54943532  0.90987481     0.18400
H3005       H  0.98535546  0.63833156  0.89067173     0.18400
N3006       N  0.01464286  0.58744850  0.90337947    -0.88400
H3007       H  0.88972072  0.57964016  0.90646660     0.35700
H3008       H  0.88817009  0.60398556  0.87246385     0.40800
H3009       H  0.02198852  0.57933885  0.92892439     0.40500
H3010       H  0.02388264  0.60879196  0.90103235     0.35300
C3011       C  0.97790208  0.88098548  0.90065562    -0.26400
C3012       C  0.94914927  0.87551355  0.89918328    -0.14500
C3013       C  0.93245108  0.89961481  0.90586337     0.36200
C3014       C  0.94394188  0.92879440  0.90997630    -0.25800
C3015       C  0.97167589  0.93540870  0.90569823    -0.15100
C3016       C  0.98948958  0.91059868  0.90486151     0.37300
N3017       N  0.01895368  0.91508635  0.90920667    -0.89300
H3018       H  0.99116684  0.86217305  0.89702279     0.18400
H3019       H  0.93019166  0.94716516  0.91356533     0.18400
N3020       N  0.90329263  0.89575303  0.90561579    -0.88400
H3021       H  0.02901577  0.89431319  0.90853193     0.35700
H3022       H  0.02562397  0.92368653  0.93427758     0.40800
H3023       H  0.90064924  0.87949617  0.92493172     0.40500
H3024       H  0.89392440  0.88767187  0.88112228     0.35300
loop_ 
_geom_bond_atom_site_label_1 
_geom_bond_atom_site_label_2 
_geom_bond_distance 
_geom_bond_site_symmetry_2 
_ccdc_geom_bond_type 
C1            C3   1.520       .  S
C1            C5   1.525       .  S
C1            C4   1.577   1_655  S
C1          C730   1.535       .  S
C2            C6   1.524       .  S
C2            C8   1.531       .  S
C2            C7   1.579   1_655  S
C2          C747   1.546       .  S
C3           C11   1.373       .  A
C3         C1518   1.374   1_545  A
C4           C15   1.400       .  A
C4         C1519   1.428   1_545  A
C5           C19   1.379       .  A
C5         C1520   1.388   1_545  A
C6            C9   1.377       .  A
C6         C1515   1.375       .  A
C7           C13   1.394       .  A
C7         C1516   1.426       .  A
C8           C16   1.377       .  A
C8         C1517   1.391       .  A
C9           N10   1.353       .  A
C9           H22   1.081       .  S
N10        C1523   1.350       .  A
N10         N106   1.404       .  S
C11        N1522   1.350   1_545  A
C11          H12   1.081       .  S
C13          N14   1.365       .  A
C13          H23   1.076       .  S
N14        C1527   1.364       .  A
N14         N215   1.432       .  S
C15        N1526   1.363       .  A
C15          H21   1.077       .  S
C16        N1529   1.356       .  A
C16          H18   1.081       .  S
N17          C19   1.352       .  A
N17        C1528   1.354   1_545  A
N17         N129   1.410   1_655  S
C19          H20   1.082       .  S
Zr24         O25   2.437       .  S
Zr24         O26   2.479       .  S
Zr24         O27   2.469       .  S
Zr24         O30   2.487       .  S
Zr24         O32   2.389       .  S
Zr24         O33   2.376       .  S
Zr24         O34   2.436       .  S
Zr24         O35   2.431       .  S
O25          H81   0.990       .  S
O25          H89   0.990       .  S
O26          C46   1.293       .  A
O27          C48   1.291       .  A
O28         Zr38   2.379       .  S
O28          C47   1.274       .  A
O29         Zr37   2.432       .  S
O29          C48   1.285       .  A
O30          C47   1.296       .  A
O31         Zr39   2.410       .  S
O31          C46   1.280       .  A
O32         Zr37   2.391       .  S
O32         Zr39   2.387       .  S
O33         Zr38   2.385       .  S
O33         Zr39   2.357       .  S
O33          H68   0.965       .  S
O34         Zr37   2.398       .  S
O34         Zr54   2.412       .  S
O34          H71   0.964       .  S
O35         Zr38   2.376       .  S
O35         Zr54   2.433       .  S
Zr36         O61   2.438       .  S
Zr36         O55   2.375       .  S
Zr36         O63   2.432       .  S
Zr36         O51   2.438       .  S
Zr36         O42   2.381       .  S
Zr36         O43   2.393       .  S
Zr36         O44   2.377       .  S
Zr36         O45   2.375       .  S
Zr37         O56   2.439       .  S
Zr37         O49   2.434       .  S
Zr37         O50   2.428       .  S
Zr37         O43   2.394       .  S
Zr37         O44   2.392       .  S
Zr38         O40   2.434       .  S
Zr38         O62   2.427       .  S
Zr38         O64   2.391       .  S
Zr38         O42   2.400       .  S
Zr38         O45   2.362       .  S
Zr39         O65   2.437       .  S
Zr39         O66   2.436       .  S
Zr39         O41   2.435       .  S
Zr39         O42   2.388       .  S
Zr39         O43   2.382       .  S
O40          H77   0.990       .  S
O41          H72   0.990       .  S
O41          H86   0.990       .  S
O43          H69   0.966       .  S
O44         Zr54   2.364       .  S
O45         Zr54   2.343       .  S
O45          H70   0.963       .  S
C46         C702   1.503       .  S
C47         C733   1.482       .  S
C48         C674   1.504       .  S
O49          H85   0.990       .  S
O50          C52   1.283       .  A
O51          C52   1.286       .  A
C52         C716   1.470       .  S
O53         Zr54   2.439       .  S
O53          H82   0.990       .  S
Zr54         O57   2.437       .  S
Zr54         O58   2.438       .  S
Zr54         O59   2.503       .  S
O55          C60   1.274       .  A
O56          H73   0.990       .  S
O56          H88   0.990       .  S
O57          H74   0.990       .  S
O58          H78   0.990       .  S
O58          H87   0.989       .  S
O59          C60   1.298       .  A
C60         C744   1.486       .  S
O61          H80   0.990       .  S
O61          H84   0.990       .  S
O62          H76   0.990       .  S
O62          H83   0.990       .  S
O63          C67   1.292       .  A
O64          C67   1.276       .  A
O65          H75   0.990       .  S
O66          H79   0.990       .  S
C67         C688   1.477   1_655  S
C90          C92   1.561       .  S
C90          C94   1.534       .  S
C90          C93   1.576       .  S
C90         C705   1.565       .  S
C91          C95   1.537       .  S
C91          C97   1.520       .  S
C91          C96   1.553       .  S
C91         C719   1.542       .  S
C92         C100   1.392       .  A
C92        C1607   1.396   1_545  A
C93         C104   1.394       .  A
C93        C1608   1.423   1_545  A
C94         C108   1.377       .  A
C94        C1609   1.376   1_545  A
C95          C98   1.379       .  A
C95        C1604   1.398       .  A
C96         C102   1.382       .  A
C96        C1605   1.418       .  A
C97         C105   1.374       .  A
C97        C1606   1.376       .  A
C98          N99   1.354       .  A
C98         H111   1.082       .  S
N99        C1612   1.359       .  A
N99         C660   1.442       .  S
C100       N1611   1.361   1_545  A
C100        H101   1.081       .  S
C102        N103   1.357       .  A
C102        H112   1.076       .  S
N103       C1616   1.360       .  A
N103       N1638   1.421       .  S
C104       N1615   1.361       .  A
C104        H110   1.077       .  S
C105        N106   1.351       .  A
C105        H107   1.081       .  S
N106       C1620   1.354       .  A
C108       N1618   1.355   1_545  A
C108        H109   1.081       .  S
C113        C115   1.530       .  S
C113        C117   1.546       .  S
C113        C116   1.561   1_455  S
C113        C646   1.535       .  S
C114        C118   1.526       .  S
C114        C120   1.535       .  S
C114        C119   1.551   1_455  S
C114        C635   1.534       .  S
C115        C123   1.379       .  A
C115       C1630   1.376   1_545  A
C116        C127   1.396       .  A
C116       C1631   1.400   1_545  A
C117        C131   1.385       .  A
C117       C1632   1.412   1_545  A
C118        C121   1.378       .  A
C118       C1627   1.374       .  A
C119        C125   1.381       .  A
C119       C1628   1.400       .  A
C120        C128   1.374       .  A
C120       C1629   1.411       .  A
C121       N1634   1.364       .  A
C121        H134   1.081       .  S
N122        C123   1.358       .  A
N122       C1633   1.364   1_545  A
N122       N1730   1.416       .  S
C123        H124   1.081       .  S
C125       N1638   1.358       .  A
C125        H135   1.080       .  S
N126        C127   1.362       .  A
N126       C1637   1.358   1_545  A
N126       N1615   1.422       .  S
C127        H133   1.081       .  S
C128       N2397   1.350       .  A
C128        H130   1.081       .  S
N129       C2396   1.351   1_545  A
N129        C887   1.356       .  A
C131        N885   1.358       .  A
C131        H132   1.081       .  S
Zr136       O137   2.438       .  S
Zr136       O138   2.475       .  S
Zr136       O139   2.499       .  S
Zr136       O142   2.472       .  S
Zr136       O144   2.399       .  S
Zr136       O145   2.395       .  S
Zr136       O146   2.427       .  S
Zr136       O147   2.424       .  S
O137        H193   0.990       .  S
O137        H201   0.990       .  S
O138        C158   1.292       .  A
O139        C160   1.299       .  A
O140       Zr150   2.412       .  S
O140        C159   1.280       .  A
O141       Zr149   2.398       .  S
O141        C160   1.280       .  A
O142        C159   1.293       .  A
O143       Zr151   2.433       .  S
O143        C158   1.280       .  A
O144       Zr149   2.424       .  S
O144       Zr151   2.345       .  S
O145       Zr150   2.377       .  S
O145       Zr151   2.386       .  S
O145        H180   0.964       .  S
O146       Zr149   2.422       .  S
O146       Zr166   2.400       .  S
O146        H183   0.967       .  S
O147       Zr150   2.401       .  S
O147       Zr166   2.405       .  S
Zr148       O173   2.462       .  S
Zr148       O167   2.421       .  S
Zr148       O175   2.403       .  S
Zr148       O163   2.364       .  S
Zr148       O155   2.441       .  S
Zr148       O156   2.363       .  S
Zr148       O157   2.370       .  S
Zr148       O154   2.283       .  S
Zr149       O168   2.438       .  S
Zr149       O161   2.435       .  S
Zr149       O162   2.498       .  S
Zr149       O155   2.382       .  S
Zr149       O156   2.380       .  S
Zr150       O152   2.438   1_455  S
Zr150       O174   2.437       .  S
Zr150       O176   2.449       .  S
Zr150       O157   2.395       .  S
Zr150       O154   2.254       .  S
Zr151       O177   2.428       .  S
Zr151       O178   2.437       .  S
Zr151       O153   2.442       .  S
Zr151       O155   2.394       .  S
Zr151       O154   2.305       .  S
O152        H189   0.990       .  S
O153        H184   0.990       .  S
O153        H198   0.990       .  S
O155        H181   0.966       .  S
O156       Zr166   2.385       .  S
O157       Zr166   2.397       .  S
O157        H182   0.968       .  S
C158        C618   1.489       .  S
C159        C649   1.500       .  S
C160        C593   1.487       .  S
O161        H197   0.990       .  S
O162        C164   1.295       .  A
O163        C164   1.272       .  A
C164        C607   1.463       .  S
O165       Zr166   2.439       .  S
O165        H194   0.990       .  S
Zr166       O169   2.438       .  S
Zr166       O170   2.440       .  S
Zr166       O171   2.425       .  S
O167        C172   1.278       .  A
O168        H185   0.990       .  S
O168        H200   0.990       .  S
O169        H186   0.990       .  S
O170        H190   0.990       .  S
O170        H199   0.990       .  S
O171        C172   1.280       .  A
C172        C632   1.482       .  S
O173        H192   0.989       .  S
O173        H196   0.989       .  S
O174        H188   0.989   1_455  S
O174        H195   0.990       .  S
O175        C179   1.266       .  A
O176        C179   1.279       .  A
O177        H187   0.991       .  S
O178        H191   0.989       .  S
C179        C691   1.477       .  S
C202        C204   1.567       .  S
C202        C206   1.546       .  S
C202        C205   1.562       .  S
C202        C621   1.546       .  S
C203        C207   1.538       .  S
C203        C209   1.546       .  S
C203        C208   1.537       .  S
C203        C604   1.533       .  S
C204        C212   1.398       .  A
C204       C1719   1.419   1_545  A
C205        C216   1.401       .  A
C205       C1720   1.389   1_545  A
C206        C220   1.388       .  A
C206       C1721   1.381   1_545  A
C207        C210   1.385       .  A
C207       C1716   1.418       .  A
C208        C214   1.384       .  A
C208       C1717   1.388       .  A
C209        C217   1.382       .  A
C209       C1718   1.381       .  A
C210        N211   1.346       .  A
C210        H223   1.077       .  S
N211       C1724   1.358       .  A
N211        C579   1.452       .  S
C212       N1723   1.357   1_545  A
C212        H213   1.081       .  S
C214        N215   1.363       .  A
C214        H224   1.081       .  S
N215       C1728   1.373       .  A
C216       N1727   1.373       .  A
C216        H222   1.081       .  S
C217        N218   1.349       .  A
C217        H219   1.074       .  S
N218       C1732   1.357       .  A
N218       N1634   1.415       .  S
C220       N1730   1.356       .  A
C220        H221   1.078       .  S
C225        C227   1.533       .  S
C225        C229   1.549       .  S
C225        C228   1.572       .  S
C225        C548   1.549       .  S
C226        C230   1.531       .  S
C226        C232   1.546       .  S
C226        C231   1.571       .  S
C226        C562   1.553       .  S
C227        C235   1.377       .  A
C227        C230   1.385       .  A
C228        C239   1.403       .  A
C228        C231   1.412       .  A
C229        C243   1.389       .  A
C229        C232   1.394       .  A
C230        C233   1.387       .  A
C231        C237   1.393       .  A
C232        C240   1.382       .  A
C233        N234   1.354       .  A
C233        H246   1.081       .  S
N234        C235   1.351       .  A
N234        N330   1.412       .  S
C235        H236   1.078       .  S
C237        N238   1.366       .  A
C237        H247   1.080       .  S
N238        C239   1.367       .  A
N238        N439   1.434       .  S
C239        H245   1.081       .  S
C240        N241   1.362       .  A
C240        H242   1.081       .  S
N241        C243   1.361       .  A
N241       N1109   1.422   1_554  S
C243        H244   1.081       .  S
Zr248       O249   2.435       .  S
Zr248       O250   2.495       .  S
Zr248       O251   2.458       .  S
Zr248       O254   2.486       .  S
Zr248       O256   2.384       .  S
Zr248       O257   2.375       .  S
Zr248       O259   2.434       .  S
Zr248      O1770   2.450       .  S
O249        H305   0.990       .  S
O249        H313   0.990       .  S
O250        C270   1.297       .  A
O251        C272   1.292       .  A
O252       Zr262   2.401       .  S
O252        C271   1.272       .  A
O253       Zr261   2.428       .  S
O253       C1784   1.286   1_545  A
O254        C271   1.291       .  A
O255       Zr263   2.383       .  S
O255        C270   1.272       .  A
O256       Zr263   2.362       .  S
O256      Zr1773   2.397       .  S
O257       Zr262   2.392       .  S
O257       Zr263   2.374       .  S
O257        H292   0.965       .  S
O258       Zr261   2.408       .  S
O258       Zr278   2.419       .  S
O258      Zr1760   2.452   1_545  S
O258        H295   0.966       .  S
O259       Zr262   2.382       .  S
O259      Zr1790   2.449       .  S
Zr260       O285   2.428       .  S
Zr260       O279   2.357       .  S
Zr260       O287   2.442       .  S
Zr260       O275   2.422       .  S
Zr260       O267   2.397       .  S
Zr260       O268   2.376       .  S
Zr260       O269   2.392       .  S
Zr260      O1778   2.369   1_545  S
Zr261       O280   2.438       .  S
Zr261       O273   2.434       .  S
Zr261       O274   2.473       .  S
Zr261       O267   2.395       .  S
Zr261       O268   2.388       .  S
Zr261      O1768   2.404   1_545  S
Zr262       O264   2.433       .  S
Zr262       O286   2.440       .  S
Zr262       O288   2.375       .  S
Zr262       O266   2.426       .  S
Zr262      O1781   2.388       .  S
Zr263       O289   2.435       .  S
Zr263       O290   2.438       .  S
Zr263       O265   2.452       .  S
Zr263       O266   2.403       .  S
Zr263      O1779   2.379       .  S
O264        H301   0.990       .  S
O265        H296   0.990       .  S
O265        H310   0.990       .  S
O266      Zr1772   2.378       .  S
O267      Zr1775   2.371   1_545  S
O267        H293   0.967       .  S
O268       Zr278   2.365       .  S
O269       Zr278   2.349       .  S
O269      Zr1774   2.393   1_545  S
O269        H294   0.967       .  S
C270        C520   1.499       .  S
C271        C551   1.482       .  S
C272       O1765   1.288       .  A
C272        C663   1.495       .  S
O273        H309   0.990       .  S
O274        C276   1.293       .  A
O275        C276   1.282       .  A
C276        C537   1.502       .  S
O277       Zr278   2.440       .  S
O277        H306   0.991       .  S
Zr278       O281   2.438       .  S
Zr278       O282   2.439       .  S
Zr278       O283   2.526       .  S
Zr278      O1771   2.451   1_545  S
O279        C284   1.271       .  A
O280        H297   0.990       .  S
O280        H312   0.990       .  S
O281        H298   0.990       .  S
O282        H302   0.990       .  S
O282        H311   0.990       .  S
O283        C284   1.301       .  A
C284        C565   1.514       .  S
O285        H304   0.989       .  S
O285        H308   0.990       .  S
O286        H300   0.990       .  S
O286        H307   0.989       .  S
O287        C291   1.273       .  A
O288       C1803   1.266       .  A
O289        H299   0.990       .  S
O290       H1815   0.990       .  S
C291       O1800   1.266   1_545  A
C291        C509   1.438       .  S
H303       O1802   0.990       .  S
C314        C316   1.548       .  S
C314        C318   1.528       .  S
C314        C317   1.569       .  S
C314        C523   1.547       .  S
C315        C319   1.548       .  S
C315        C321   1.544       .  S
C315        C320   1.558       .  S
C315        C534   1.545       .  S
C316        C324   1.385       .  A
C316        C319   1.400       .  A
C317        C328   1.407       .  A
C317        C320   1.409       .  A
C318        C332   1.371       .  A
C318        C321   1.381       .  A
C319        C322   1.390       .  A
C320        C326   1.387       .  A
C321        C329   1.388       .  A
C322        N323   1.357       .  A
C322        H335   1.078       .  S
N323        C324   1.359       .  A
N323        C677   1.450       .  S
C324        H325   1.080       .  S
C326        N327   1.364       .  A
C326        H336   1.081       .  S
N327        C328   1.367       .  A
N327        N350   1.432       .  S
C328        H334   1.079       .  S
C329        N330   1.357       .  A
C329        H331   1.080       .  S
N330        C332   1.353       .  A
C332        H333   1.080       .  S
C337        C339   1.536       .  S
C337        C341   1.555       .  S
C337        C340   1.573       .  S
C337        C478   1.547       .  S
C338        C342   1.546       .  S
C338        C344   1.541       .  S
C338        C343   1.549       .  S
C338        C492   1.543       .  S
C339        C347   1.386       .  A
C339        C342   1.377       .  A
C340        C351   1.407       .  A
C340        C343   1.403       .  A
C341        C355   1.386       .  A
C341        C344   1.400       .  A
C342        C345   1.385       .  A
C343        C349   1.381       .  A
C344        C352   1.378       .  A
C345        N346   1.354       .  A
C345        H358   1.077       .  S
N346        C347   1.357       .  A
N346        N442   1.415       .  S
C347        H348   1.081       .  S
C349        N350   1.361       .  A
C349        H359   1.081       .  S
N350        C351   1.373       .  A
C351        H357   1.080       .  S
C352        N353   1.355       .  A
C352        H354   1.075       .  S
N353        C355   1.360       .  A
N353        N997   1.416       .  S
C355        H356   1.081       .  S
Zr360       O361   2.438       .  S
Zr360       O362   2.499       .  S
Zr360       O363   2.496       .  S
Zr360       O366   2.499       .  S
Zr360       O368   2.395       .  S
Zr360       O369   2.367       .  S
Zr360       O371   2.431       .  S
Zr360      O1882   2.439       .  S
O361        H417   0.990       .  S
O361        H425   0.990       .  S
O362        C382   1.297       .  A
O363        C384   1.297       .  A
O364       Zr374   2.379       .  S
O364        C383   1.274       .  A
O365       Zr373   2.389       .  S
O365       C1896   1.278   1_545  A
O366        C383   1.298       .  A
O367       Zr375   2.383       .  S
O367        C382   1.272       .  A
O368       Zr375   2.372       .  S
O368      Zr1885   2.408       .  S
O369       Zr374   2.384       .  S
O369       Zr375   2.382       .  S
O369        H404   0.963       .  S
O370       Zr373   2.409       .  S
O370       Zr390   2.407       .  S
O370      Zr1872   2.432   1_545  S
O370        H407   0.966       .  S
O371       Zr374   2.396       .  S
O371      Zr1902   2.433       .  S
Zr372       O397   2.467       .  S
Zr372       O391   2.349       .  S
Zr372       O399   2.405       .  S
Zr372       O387   2.392       .  S
Zr372       O378   2.397       .  S
Zr372       O379   2.400       .  S
Zr372       O380   2.374       .  S
Zr372       O381   2.390       .  S
Zr373       O392   2.438       .  S
Zr373       O385   2.435       .  S
Zr373       O386   2.437       .  S
Zr373       O379   2.392       .  S
Zr373       O380   2.392       .  S
Zr373      O1880   2.405   1_545  S
Zr374       O376   2.434       .  S
Zr374       O398   2.441       .  S
Zr374       O400   2.420       .  S
Zr374      O1890   2.389       .  S
Zr374      O1893   2.390       .  S
Zr375       O401   2.434       .  S
Zr375       O402   2.437       .  S
Zr375       O377   2.440       .  S
Zr375      O1890   2.373       .  S
Zr375      O1891   2.377       .  S
O376        H413   0.990       .  S
O377        H408   0.990       .  S
O377        H422   0.990       .  S
O378      Zr1886   2.397   1_545  S
O378      Zr1887   2.380   1_545  S
O379      Zr1887   2.374   1_545  S
O379        H405   0.964       .  S
O380       Zr390   2.383       .  S
O381       Zr390   2.360       .  S
O381      Zr1886   2.394   1_545  S
O381        H406   0.968       .  S
C382        C450   1.477       .  S
C383        C481   1.490       .  S
C384       O1877   1.278       .  A
C384        C576   1.486       .  S
O385        H421   0.990       .  S
O386        C388   1.284       .  A
O387        C388   1.273       .  A
C388        C464   1.457       .  S
O389       Zr390   2.438       .  S
O389        H418   0.991       .  S
Zr390       O393   2.437       .  S
Zr390       O394   2.438       .  S
Zr390       O395   2.486       .  S
Zr390      O1883   2.433   1_545  S
O391        C396   1.264       .  A
O392        H409   0.990       .  S
O392        H424   0.990       .  S
O393        H410   0.990       .  S
O394        H414   0.989       .  S
O394        H423   0.990       .  S
O395        C396   1.289       .  A
C396        C495   1.493       .  S
O397        H416   0.992       .  S
O397        H420   0.988       .  S
O398        H412   0.990       .  S
O398        H419   0.988       .  S
O399        C403   1.265       .  A
O400       C1915   1.271       .  A
O401        H411   0.990       .  S
O402       H1927   0.989       .  S
C403       O1912   1.272       .  A
C403        C506   1.465       .  S
H415       O1914   0.989       .  S
C426        C428   1.570       .  S
C426        C430   1.538       .  S
C426        C429   1.581       .  S
C426        C453   1.543       .  S
C427        C431   1.531       .  S
C427        C433   1.540       .  S
C427        C432   1.548       .  S
C427        C467   1.533       .  S
C428        C436   1.407       .  A
C428        C431   1.397       .  A
C429        C440   1.405       .  A
C429        C432   1.405       .  A
C430        C444   1.387       .  A
C430        C433   1.377       .  A
C431        C434   1.378       .  A
C432        C438   1.388       .  A
C433        C441   1.380       .  A
C434        N435   1.345       .  A
C434        H447   1.083       .  S
N435        C436   1.364       .  A
N435        C590   1.450       .  S
C436        H437   1.079       .  S
C438        N439   1.363       .  A
C438        H448   1.078       .  S
N439        C440   1.371       .  A
C440        H446   1.081       .  S
C441        N442   1.358       .  A
C441        H443   1.080       .  S
N442        C444   1.356       .  A
C444        H445   1.079       .  S
C449        C450   1.404       .  A
C449        C454   1.404       .  A
C449        H456   1.085       .  S
C450        C451   1.415       .  A
C451        C452   1.408       .  A
C451        N458   1.438       .  S
C452        C453   1.409       .  A
C452        H457   1.076       .  S
C453        C454   1.416       .  A
C454        N455   1.434       .  S
N455        H459   1.045       .  S
N455        H460   1.045       .  S
N458        H461   1.044       .  S
N458        H462   1.046       .  S
C463        C464   1.406       .  A
C463        C468   1.403       .  A
C463        H470   1.084       .  S
C464        C465   1.398       .  A
C465        C466   1.385       .  A
C465        N472   1.434       .  S
C466        C467   1.419       .  A
C466        H471   1.084       .  S
C467        C468   1.418       .  A
C468        N469   1.434       .  S
N469        H473   1.044       .  S
N469        H474   1.042       .  S
N472        H475   1.045       .  S
N472        H476   1.045       .  S
C477        C478   1.425       .  A
C477        C482   1.409       .  A
C477        H484   1.079       .  S
C478        C479   1.414       .  A
C479        C480   1.406       .  A
C479        N486   1.429       .  S
C480        C481   1.408       .  A
C480        H485   1.084       .  S
C481        C482   1.409       .  A
C482        N483   1.438       .  S
N483        H487   1.046       .  S
N483        H488   1.042       .  S
N486        H489   1.046       .  S
N486        H490   1.046       .  S
C491        C492   1.394       .  A
C491        C496   1.390       .  A
C491        H498   1.084       .  S
C492        C493   1.422       .  A
C493        C494   1.419       .  A
C493        N500   1.436       .  S
C494        C495   1.407       .  A
C494        H499   1.083       .  S
C495        C496   1.423       .  A
C496        N497   1.441       .  S
N497        H501   1.046       .  S
N497        H502   1.046       .  S
N500        H503   1.045       .  S
N500        H504   1.046       .  S
C505        C506   1.409       .  A
C505        C510   1.388       .  A
C505        H512   1.065       .  S
C506        C507   1.401   1_545  A
C507        C508   1.387       .  A
C507        N514   1.430       .  S
C508        C509   1.401   1_565  A
C508        H513   1.079       .  S
C509        C510   1.393       .  A
C510        N511   1.438       .  S
N511        H515   1.046       .  S
N511        H516   1.045       .  S
N514        H517   1.040       .  S
N514        H518   1.046   1_565  S
C519        C520   1.396       .  A
C519        C524   1.408       .  A
C519        H526   1.084       .  S
C520        C521   1.424       .  A
C521        C522   1.405       .  A
C521        N528   1.433       .  S
C522        C523   1.397       .  A
C522        H527   1.078       .  S
C523        C524   1.431       .  A
C524        N525   1.432       .  S
N525        H529   1.043       .  S
N525        H530   1.045       .  S
N528        H531   1.045       .  S
N528        H532   1.046       .  S
C533        C534   1.402       .  A
C533        C538   1.395       .  A
C533        H540   1.084       .  S
C534        C535   1.420       .  A
C535        C536   1.412       .  A
C535        N542   1.437       .  S
C536        C537   1.410       .  A
C536        H541   1.084       .  S
C537        C538   1.425       .  A
C538        N539   1.432       .  S
N539        H543   1.043       .  S
N539        H544   1.045       .  S
N542        H545   1.044       .  S
N542        H546   1.044       .  S
C547        C548   1.420       .  A
C547        C552   1.407       .  A
C547        H554   1.079       .  S
C548        C549   1.420       .  A
C549        C550   1.410       .  A
C549        N556   1.430       .  S
C550        C551   1.404       .  A
C550        H555   1.083       .  S
C551        C552   1.408       .  A
C552        N553   1.439       .  S
N553        H557   1.046       .  S
N553        H558   1.044       .  S
N556        H559   1.046       .  S
N556        H560   1.046       .  S
C561        C562   1.425       .  A
C561        C566   1.419       .  A
C561        H568   1.080       .  S
C562        C563   1.416       .  A
C563        C564   1.406       .  A
C563        N570   1.436       .  S
C564        C565   1.417       .  A
C564        H569   1.082       .  S
C565        C566   1.407       .  A
C566        N567   1.436       .  S
N567        H571   1.045       .  S
N567        H572   1.046       .  S
N570        H573   1.045       .  S
N570        H574   1.046       .  S
C575        C580   1.401       .  A
C575       C2088   1.406   1_545  A
C575        H582   1.084       .  S
C576        C577   1.409       .  A
C576       C2087   1.407       .  A
C577        C578   1.416       .  A
C577        N584   1.437       .  S
C578        C579   1.415       .  A
C578        H583   1.082       .  S
C579       C2092   1.408       .  A
C580       C2091   1.407   1_545  A
C580        N581   1.432       .  S
N581        H585   1.046       .  S
N581        H586   1.045       .  S
N584        H587   1.046       .  S
N584        H588   1.046       .  S
C589        C590   1.412       .  A
C589        C594   1.409       .  A
C589        H596   1.083       .  S
C590        C591   1.412       .  A
C591        C592   1.402       .  A
C591        N598   1.432       .  S
C592        C593   1.408       .  A
C592        H597   1.084       .  S
C593        C594   1.412       .  A
C594        N595   1.432       .  S
N595        H599   1.045       .  S
N595        H600   1.046       .  S
N598        H601   1.046       .  S
N598        H602   1.044       .  S
C603        C604   1.398       .  A
C603        C608   1.387       .  A
C603        H610   1.085       .  S
C604        C605   1.421       .  A
C605        C606   1.410       .  A
C605        N612   1.437       .  S
C606        C607   1.404       .  A
C606        H611   1.084       .  S
C607        C608   1.411       .  A
C608        N609   1.433       .  S
N609        H613   1.037       .  S
N609        H614   1.046       .  S
N612        H615   1.044       .  S
N612        H616   1.044       .  S
C617        C618   1.406       .  A
C617        C622   1.420       .  A
C617        H624   1.083       .  S
C618        C619   1.409       .  A
C619        C620   1.401       .  A
C619        N626   1.430       .  S
C620        C621   1.403       .  A
C620        H625   1.084       .  S
C621        C622   1.420       .  A
C622        N623   1.436       .  S
N623        H627   1.045       .  S
N623        H628   1.045       .  S
N626        H629   1.045       .  S
N626        H630   1.046       .  S
C631        C632   1.400       .  A
C631        C636   1.408       .  A
C631        H638   1.084       .  S
C632        C633   1.410       .  A
C633        C634   1.401       .  A
C633        N640   1.438       .  S
C634        C635   1.406       .  A
C634        H639   1.077       .  S
C635        C636   1.424       .  A
C636        N637   1.438       .  S
N637        H641   1.046       .  S
N637        H642   1.045       .  S
N640        H643   1.046   1_455  S
N640        H644   1.046   1_455  S
C645        C646   1.401       .  A
C645        C650   1.395       .  A
C645        H652   1.077       .  S
C646        C647   1.423       .  A
C647        C648   1.415       .  A
C647        N654   1.432       .  S
C648        C649   1.405       .  A
C648        H653   1.083       .  S
C649        C650   1.418       .  A
C650        N651   1.431       .  S
N651        H655   1.046       .  S
N651        H656   1.046   1_455  S
N654        H657   1.046       .  S
N654        H658   1.045       .  S
C659        C664   1.413       .  A
C659       C2172   1.404       .  A
C659        H666   1.083       .  S
C660        C661   1.413       .  A
C660       C2171   1.403       .  A
C661        C662   1.400       .  A
C661        N668   1.432       .  S
C662        C663   1.407       .  A
C662        H667   1.084       .  S
C663       C2176   1.418       .  A
C664       C2175   1.416       .  A
C664        N665   1.437       .  S
N665        H669   1.046       .  S
N665        H670   1.045       .  S
N668        H671   1.044       .  S
N668        H672   1.045       .  S
C673        C674   1.409       .  A
C673        C678   1.399       .  A
C673        H680   1.084       .  S
C674        C675   1.419       .  A
C675        C676   1.417       .  A
C675        N682   1.436       .  S
C676        C677   1.407       .  A
C676        H681   1.083       .  S
C677        C678   1.413       .  A
C678        N679   1.428       .  S
N679        H683   1.041       .  S
N679        H684   1.046       .  S
N682        H685   1.045       .  S
N682        H686   1.046       .  S
C687        C688   1.405       .  A
C687        C692   1.411       .  A
C687        H694   1.083       .  S
C688        C689   1.396       .  A
C689        C690   1.400       .  A
C689        N696   1.431       .  S
C690        C691   1.415       .  A
C690        H695   1.071       .  S
C691        C692   1.415       .  A
C692        N693   1.435       .  S
N693        H697   1.045       .  S
N693        H698   1.045       .  S
N696        H699   1.046       .  S
N696        H700   1.045       .  S
C701        C702   1.404       .  A
C701        C706   1.403       .  A
C701        H708   1.084       .  S
C702        C703   1.408       .  A
C703        C704   1.408       .  A
C703        N710   1.433       .  S
C704        C705   1.423       .  A
C704        H709   1.070       .  S
C705        C706   1.437       .  A
C706        N707   1.434       .  S
N707        H711   1.044       .  S
N707        H712   1.039       .  S
N710        H713   1.046       .  S
N710        H714   1.045       .  S
C715        C716   1.402       .  A
C715        C720   1.412       .  A
C715        H722   1.084       .  S
C716        C717   1.402       .  A
C717        C718   1.398       .  A
C717        N724   1.439       .  S
C718        C719   1.414       .  A
C718        H723   1.084       .  S
C719        C720   1.417       .  A
C720        N721   1.429       .  S
N721        H725   1.045       .  S
N721        H726   1.046       .  S
N724        H727   1.045       .  S
N724        H728   1.046       .  S
C729        C730   1.424       .  A
C729        C734   1.397       .  A
C729        H736   1.084       .  S
C730        C731   1.403       .  A
C731        C732   1.408       .  A
C731        N738   1.432   1_655  S
C732        C733   1.416       .  A
C732        H737   1.080       .  S
C733        C734   1.394       .  A
C734        N735   1.432       .  S
N735        H739   1.046       .  S
N735        H740   1.045       .  S
N738        H741   1.046       .  S
N738        H742   1.046       .  S
C743        C744   1.414       .  A
C743        C748   1.413       .  A
C743        H750   1.084       .  S
C744        C745   1.403       .  A
C745        C746   1.399       .  A
C745        N752   1.432       .  S
C746        C747   1.422       .  A
C746        H751   1.084       .  S
C747        C748   1.408       .  A
C748        N749   1.431   1_655  S
N749        H753   1.046       .  S
N749        H754   1.046       .  S
N752        H755   1.045       .  S
N752        H756   1.046       .  S
C757        C759   1.524       .  S
C757        C761   1.530       .  S
C757        C760   1.579   1_655  S
C757       C1486   1.538       .  S
C758        C762   1.528       .  S
C758        C764   1.533       .  S
C758        C763   1.575   1_655  S
C758       C1503   1.546       .  S
C759        C767   1.375       .  A
C759       C2274   1.373   1_545  A
C760        C771   1.401       .  A
C760       C2275   1.427   1_545  A
C761        C775   1.384       .  A
C761       C2276   1.389   1_545  A
C762       C2271   1.376       .  A
C762        C765   1.379       .  A
C763       C2272   1.427       .  A
C763        C769   1.392       .  A
C764       C2273   1.390       .  A
C764        C772   1.379       .  A
C765        N766   1.355       .  A
C765        H778   1.081       .  S
N766       C2279   1.349       .  A
N766        N862   1.406       .  S
C767       N2278   1.351   1_545  A
C767        H768   1.081       .  S
C769        N770   1.363       .  A
C769        H779   1.075       .  S
N770       C2283   1.365       .  A
N770        N971   1.432       .  S
C771       N2282   1.364       .  A
C771        H777   1.077       .  S
C772       N2285   1.357       .  A
C772        H774   1.081       .  S
N773       C2284   1.355   1_545  A
N773        C775   1.355       .  A
N773        N885   1.414   1_656  S
C775        H776   1.082       .  S
Zr780       O781   2.438       .  S
Zr780       O782   2.486       .  S
Zr780       O783   2.473       .  S
Zr780       O786   2.489       .  S
Zr780       O788   2.388       .  S
Zr780       O789   2.373       .  S
Zr780       O790   2.432       .  S
Zr780       O791   2.335       .  S
O781        H837   0.990       .  S
O781        H845   0.990       .  S
O782        C802   1.294       .  A
O783        C804   1.292       .  A
O784       Zr794   2.378       .  S
O784        C803   1.273       .  A
O785       Zr793   2.420       .  S
O785        C804   1.283       .  A
O786        C803   1.296       .  A
O787       Zr795   2.409       .  S
O787        C802   1.280       .  A
O788       Zr793   2.392       .  S
O788       Zr795   2.387       .  S
O789       Zr794   2.382       .  S
O789       Zr795   2.364       .  S
O789        H824   0.966       .  S
O790       Zr793   2.402       .  S
O790       Zr810   2.411       .  S
O790        H827   0.966       .  S
O791       Zr794   2.277       .  S
O791       Zr810   2.339       .  S
Zr792       O817   2.438       .  S
Zr792       O811   2.378       .  S
Zr792       O819   2.442       .  S
Zr792       O807   2.449       .  S
Zr792       O798   2.386       .  S
Zr792       O799   2.396       .  S
Zr792       O800   2.383       .  S
Zr792       O801   2.382       .  S
Zr793       O812   2.438       .  S
Zr793       O805   2.435       .  S
Zr793       O806   2.421       .  S
Zr793       O799   2.394       .  S
Zr793       O800   2.398       .  S
Zr794       O796   2.436       .  S
Zr794       O818   2.422       .  S
Zr794       O820   2.392       .  S
Zr794       O798   2.398       .  S
Zr794       O801   2.363       .  S
Zr795       O821   2.437       .  S
Zr795       O822   2.435       .  S
Zr795       O797   2.436       .  S
Zr795       O798   2.394       .  S
Zr795       O799   2.379       .  S
O796        H833   0.990       .  S
O797        H828   0.991       .  S
O797        H842   0.990       .  S
O799        H825   0.966       .  S
O800       Zr810   2.362       .  S
O801       Zr810   2.340       .  S
O801        H826   0.966       .  S
C802       C1458   1.503       .  S
C803       C1489   1.489       .  S
C804       C1430   1.501       .  S
O805        H841   0.990       .  S
O806        C808   1.282       .  A
O807        C808   1.288       .  A
C808       C1472   1.469       .  S
O809       Zr810   2.440       .  S
O809        H838   0.991       .  S
Zr810       O813   2.438       .  S
Zr810       O814   2.440       .  S
Zr810       O815   2.511       .  S
O811        C816   1.275       .  A
O812        H829   0.991       .  S
O812        H844   0.990       .  S
O813        H830   0.990       .  S
O814        H834   0.990       .  S
O814        H843   0.990       .  S
O815        C816   1.299       .  A
C816       C1500   1.489       .  S
O817        H836   0.990       .  S
O817        H840   0.990       .  S
O818        H832   0.990       .  S
O818        H839   0.990       .  S
O819        C823   1.293       .  A
O820        C823   1.275       .  A
O821        H831   0.990       .  S
O822        H835   0.990       .  S
C823       C1444   1.475   1_655  S
C846        C848   1.563       .  S
C846        C850   1.536       .  S
C846        C849   1.573       .  S
C846       C1461   1.563       .  S
C847        C851   1.532       .  S
C847        C853   1.521       .  S
C847        C852   1.551       .  S
C847       C1475   1.537       .  S
C848        C856   1.393       .  A
C848       C2363   1.397   1_545  A
C849        C860   1.394       .  A
C849       C2364   1.417   1_545  A
C850        C864   1.379       .  A
C850       C2365   1.377   1_545  A
C851       C2360   1.394       .  A
C851        C854   1.375       .  A
C852       C2361   1.419       .  A
C852        C858   1.380       .  A
C853       C2362   1.376       .  A
C853        C861   1.376       .  A
C854        N855   1.352       .  A
C854        H867   1.082       .  S
N855       C2368   1.360       .  A
N855       C1416   1.441       .  S
C856       N2367   1.363   1_545  A
C856        H857   1.080       .  S
C858        N859   1.357       .  A
C858        H868   1.077       .  S
N859       C2372   1.360       .  A
N859       N2394   1.420       .  S
C860       N2371   1.362       .  A
C860        H866   1.078       .  S
C861        N862   1.352       .  A
C861        H863   1.081       .  S
N862       C2376   1.355       .  A
C864       N2374   1.357   1_545  A
C864        H865   1.081       .  S
C869        C871   1.528       .  S
C869        C873   1.542       .  S
C869        C872   1.560   1_455  S
C869       C1402   1.531       .  S
C870        C874   1.527       .  S
C870        C876   1.539       .  S
C870        C875   1.548   1_455  S
C870       C1391   1.536       .  S
C871        C879   1.377       .  A
C871       C2386   1.376   1_545  A
C872        C883   1.396       .  A
C872       C2387   1.397   1_545  A
C873        C887   1.381       .  A
C873       C2388   1.413   1_545  A
C874       C2383   1.377       .  A
C874        C877   1.378       .  A
C875       C2384   1.398       .  A
C875        C881   1.380       .  A
C876       C2385   1.412       .  A
C876        C884   1.375       .  A
C877       N2390   1.363       .  A
C877        H890   1.081       .  S
N878       C2389   1.362   1_545  A
N878        C879   1.358       .  A
N878       N2486   1.414   1_545  S
C879        H880   1.081       .  S
C881       N2394   1.357       .  A
C881        H891   1.080       .  S
N882       C2393   1.359   1_545  A
N882        C883   1.362       .  A
N882       N2371   1.422       .  S
C883        H889   1.081       .  S
C884       N1641   1.352       .  A
C884        H886   1.081       .  S
N885       C1640   1.353   1_545  A
C887        H888   1.081       .  S
Zr892       O893   2.440       .  S
Zr892       O894   2.474       .  S
Zr892       O895   2.494       .  S
Zr892       O898   2.475       .  S
Zr892       O900   2.404       .  S
Zr892       O901   2.390       .  S
Zr892       O902   2.429       .  S
Zr892       O903   2.422       .  S
O893        H949   0.991       .  S
O893        H957   0.990       .  S
O894        C914   1.291       .  A
O895        C916   1.298       .  A
O896       Zr906   2.397       .  S
O896        C915   1.276       .  A
O897       Zr905   2.407       .  S
O897        C916   1.281       .  A
O898        C915   1.293       .  A
O899       Zr907   2.429       .  S
O899        C914   1.278       .  A
O900       Zr905   2.429       .  S
O900       Zr907   2.349       .  S
O901       Zr906   2.381       .  S
O901       Zr907   2.383       .  S
O901        H936   0.963       .  S
O902       Zr905   2.424       .  S
O902       Zr922   2.398       .  S
O902        H939   0.967       .  S
O903       Zr906   2.401       .  S
O903       Zr922   2.406       .  S
Zr904       O929   2.466       .  S
Zr904       O923   2.426       .  S
Zr904       O931   2.410       .  S
Zr904       O919   2.372       .  S
Zr904       O911   2.441       .  S
Zr904       O912   2.365       .  S
Zr904       O913   2.371       .  S
Zr904       O910   2.281       .  S
Zr905       O924   2.438       .  S
Zr905       O917   2.435       .  S
Zr905       O918   2.501       .  S
Zr905       O911   2.383       .  S
Zr905       O912   2.382       .  S
Zr906       O908   2.438   1_455  S
Zr906       O930   2.437       .  S
Zr906       O932   2.432       .  S
Zr906       O913   2.397       .  S
Zr906       O910   2.259       .  S
Zr907       O933   2.429       .  S
Zr907       O934   2.436       .  S
Zr907       O909   2.444       .  S
Zr907       O911   2.391       .  S
Zr907       O910   2.304       .  S
O908        H945   0.990       .  S
O909        H940   0.990       .  S
O909        H954   0.990       .  S
O911        H937   0.965       .  S
O912       Zr922   2.387       .  S
O913       Zr922   2.394       .  S
O913        H938   0.966       .  S
C914       C1374   1.492       .  S
C915       C1405   1.495       .  S
C916       C1349   1.487       .  S
O917        H953   0.990       .  S
O918        C920   1.297       .  A
O919        C920   1.274       .  A
C920       C1363   1.469       .  S
O921       Zr922   2.438       .  S
O921        H950   0.990       .  S
Zr922       O925   2.439       .  S
Zr922       O926   2.438       .  S
Zr922       O927   2.425       .  S
O923        C928   1.279       .  A
O924        H941   0.990       .  S
O924        H956   0.990       .  S
O925        H942   0.990       .  S
O926        H946   0.990       .  S
O926        H955   0.990       .  S
O927        C928   1.281       .  A
C928       C1388   1.484       .  S
O929        H948   0.989       .  S
O929        H952   0.989       .  S
O930        H944   0.989   1_455  S
O930        H951   0.990       .  S
O931        C935   1.267       .  A
O932        C935   1.274       .  A
O933        H943   0.991       .  S
O934        H947   0.989       .  S
C935       C1447   1.472       .  S
C958        C960   1.565       .  S
C958        C962   1.545       .  S
C958        C961   1.562       .  S
C958       C1377   1.546       .  S
C959        C963   1.539       .  S
C959        C965   1.546       .  S
C959        C964   1.540       .  S
C959       C1360   1.538       .  S
C960        C968   1.394       .  A
C960       C2475   1.416   1_545  A
C961        C972   1.402       .  A
C961       C2476   1.390   1_545  A
C962        C976   1.387       .  A
C962       C2477   1.381   1_545  A
C963       C2472   1.422       .  A
C963        C966   1.385       .  A
C964       C2473   1.390       .  A
C964        C970   1.384       .  A
C965       C2474   1.382       .  A
C965        C973   1.383       .  A
C966        N967   1.345       .  A
C966        H979   1.078       .  S
N967       C2480   1.353       .  A
N967       C1335   1.443       .  S
C968       N2479   1.357   1_545  A
C968        H969   1.081       .  S
C970        N971   1.365       .  A
C970        H980   1.081       .  S
N971       C2484   1.371       .  A
C972       N2483   1.373       .  A
C972        H978   1.081       .  S
C973        N974   1.351       .  A
C973        H975   1.075       .  S
N974       C2488   1.357       .  A
N974       N2390   1.415       .  S
C976       N2486   1.356   1_545  A
C976        H977   1.078       .  S
C981        C983   1.532       .  S
C981        C985   1.545       .  S
C981        C984   1.571       .  S
C981       C1304   1.548       .  S
C982        C986   1.526       .  S
C982        C988   1.540       .  S
C982        C987   1.568       .  S
C982       C1318   1.554       .  S
C983        C991   1.375       .  A
C983        C986   1.386       .  A
C984        C995   1.403       .  A
C984        C987   1.413       .  A
C985        C999   1.385       .  A
C985        C988   1.394       .  A
C986        C989   1.383       .  A
C987        C993   1.388       .  A
C988        C996   1.376       .  A
C989        N990   1.351       .  A
C989       H1002   1.081       .  S
N990        C991   1.350       .  A
N990       N1086   1.409       .  S
C991        H992   1.077       .  S
C993        N994   1.365       .  A
C993       H1003   1.080       .  S
N994        C995   1.367       .  A
N994       N1195   1.432       .  S
C995       H1001   1.081       .  S
C996        N997   1.360       .  A
C996        H998   1.080       .  S
N997        C999   1.359       .  A
C999       H1000   1.081       .  S
Zr1004     O1005   2.435       .  S
Zr1004     O1006   2.504       .  S
Zr1004     O1007   2.456       .  S
Zr1004     O1010   2.479       .  S
Zr1004     O1012   2.384       .  S
Zr1004     O1013   2.375       .  S
Zr1004     O2526   2.454       .  S
Zr1004     O1015   2.437       .  S
O1005      H1061   0.990       .  S
O1005      H1069   0.990       .  S
O1006      C1026   1.299       .  A
O1007      C1028   1.291       .  A
O1008     Zr1018   2.403       .  S
O1008      C1027   1.271       .  A
O1009     Zr1017   2.429       .  S
O1009      C2540   1.287   1_545  A
O1010      C1027   1.289       .  A
O1011     Zr1019   2.374       .  S
O1011      C1026   1.271       .  A
O1012     Zr2529   2.398       .  S
O1012     Zr1019   2.358       .  S
O1013     Zr1018   2.396       .  S
O1013     Zr1019   2.384       .  S
O1013      H1048   0.965       .  S
O1014     Zr2516   2.450   1_545  S
O1014     Zr1017   2.410       .  S
O1014     Zr1034   2.417       .  S
O1014      H1051   0.965       .  S
O1015     Zr1018   2.383       .  S
O1015     Zr2546   2.451       .  S
Zr1016     O1041   2.430       .  S
Zr1016     O1035   2.369       .  S
Zr1016     O1043   2.425       .  S
Zr1016     O1031   2.389       .  S
Zr1016     O2534   2.372   1_545  S
Zr1016     O1023   2.394       .  S
Zr1016     O1024   2.373       .  S
Zr1016     O1025   2.385       .  S
Zr1017     O1036   2.435       .  S
Zr1017     O1029   2.436       .  S
Zr1017     O1030   2.484       .  S
Zr1017     O2524   2.401   1_545  S
Zr1017     O1023   2.387       .  S
Zr1017     O1024   2.388       .  S
Zr1018     O1020   2.435       .  S
Zr1018     O1042   2.438       .  S
Zr1018     O1044   2.379       .  S
Zr1018     O1022   2.420       .  S
Zr1018     O2537   2.391       .  S
Zr1019     O1045   2.434       .  S
Zr1019     O1046   2.435       .  S
Zr1019     O1021   2.451       .  S
Zr1019     O1022   2.396       .  S
Zr1019     O2535   2.372       .  S
O1020      H1057   0.990       .  S
O1021      H1052   0.990       .  S
O1021      H1066   0.990       .  S
O1022     Zr2528   2.371       .  S
O1023     Zr2531   2.373   1_545  S
O1023      H1049   0.965       .  S
O1024     Zr1034   2.363       .  S
O1025     Zr2530   2.389   1_545  S
O1025     Zr1034   2.351       .  S
O1025      H1050   0.967       .  S
C1026      C1276   1.498       .  S
C1027      C1307   1.482       .  S
C1028      O2521   1.286       .  A
C1028      C1419   1.491       .  S
O1029      H1065   0.990       .  S
O1030      C1032   1.295       .  A
O1031      C1032   1.274       .  A
C1032      C1293   1.496       .  S
O1033     Zr1034   2.439       .  S
O1033      H1062   0.990       .  S
Zr1034     O1037   2.437       .  S
Zr1034     O1038   2.438       .  S
Zr1034     O1039   2.523       .  S
Zr1034     O2527   2.449   1_545  S
O1035      C1040   1.274       .  A
O1036      H1053   0.990       .  S
O1036      H1068   0.990       .  S
O1037      H1054   0.990       .  S
O1038      H1058   0.990       .  S
O1038      H1067   0.990       .  S
O1039      C1040   1.300       .  A
C1040      C1321   1.514       .  S
O1041      H1060   0.990       .  S
O1041      H1064   0.989       .  S
O1042      H1056   0.989       .  S
O1042      H1063   0.989       .  S
O1043      C1047   1.269       .  A
O1044      C2559   1.265       .  A
O1045      H1055   0.990       .  S
O1046      H2571   0.990       .  S
C1047      O2556   1.269   1_545  A
C1047      C1265   1.445       .  S
H1059      O2558   0.990   1_545  S
C1070      C1072   1.555       .  S
C1070      C1074   1.524       .  S
C1070      C1073   1.574       .  S
C1070      C1279   1.547       .  S
C1071      C1075   1.538       .  S
C1071      C1077   1.545       .  S
C1071      C1076   1.556       .  S
C1071      C1290   1.539       .  S
C1072      C1080   1.391       .  A
C1072      C1075   1.399       .  A
C1073      C1084   1.411       .  A
C1073      C1076   1.413       .  A
C1074      C1088   1.369       .  A
C1074      C1077   1.379       .  A
C1075      C1078   1.386       .  A
C1076      C1082   1.388       .  A
C1077      C1085   1.387       .  A
C1078      N1079   1.352       .  A
C1078      H1091   1.078       .  S
N1079      C1080   1.361       .  A
N1079      C1433   1.450       .  S
C1080      H1081   1.081       .  S
C1082      N1083   1.360       .  A
C1082      H1092   1.080       .  S
N1083      C1084   1.370       .  A
N1083      N1106   1.435       .  S
C1084      H1090   1.080       .  S
C1085      N1086   1.356       .  A
C1085      H1087   1.079       .  S
N1086      C1088   1.351       .  A
C1088      H1089   1.080       .  S
C1093      C1095   1.534       .  S
C1093      C1097   1.561       .  S
C1093      C1096   1.571       .  S
C1093      C1234   1.555       .  S
C1094      C1098   1.549       .  S
C1094      C1100   1.551       .  S
C1094      C1099   1.556       .  S
C1094      C1248   1.557       .  S
C1095      C1103   1.385       .  A
C1095      C1098   1.380       .  A
C1096      C1107   1.406       .  A
C1096      C1099   1.404       .  A
C1097      C1111   1.391       .  A
C1097      C1100   1.404       .  A
C1098      C1101   1.387       .  A
C1099      C1105   1.386       .  A
C1100      C1108   1.385       .  A
C1101      N1102   1.354       .  A
C1101      H1114   1.077       .  S
N1102      C1103   1.356       .  A
N1102      N1198   1.416       .  S
C1103      H1104   1.081       .  S
C1105      N1106   1.366       .  A
C1105      H1115   1.081       .  S
N1106      C1107   1.371       .  A
C1107      H1113   1.081       .  S
C1108      N1109   1.358       .  A
C1108      H1110   1.076       .  S
N1109      C1111   1.362       .  A
C1111      H1112   1.081       .  S
Zr1116     O1117   2.437       .  S
Zr1116     O1118   2.486       .  S
Zr1116     O1119   2.480       .  S
Zr1116     O1122   2.506       .  S
Zr1116     O1124   2.396       .  S
Zr1116     O1125   2.364       .  S
Zr1116     O2638   2.440       .  S
Zr1116     O1127   2.428       .  S
O1117      H1173   0.990       .  S
O1117      H1181   0.990       .  S
O1118      C1138   1.295       .  A
O1119      C1140   1.294       .  A
O1120     Zr1130   2.400       .  S
O1120      C1139   1.277       .  A
O1121     Zr1129   2.391       .  S
O1121      C2652   1.279   1_545  A
O1122      C1139   1.299       .  A
O1123     Zr1131   2.385       .  S
O1123      C1138   1.274       .  A
O1124     Zr2641   2.400       .  S
O1124     Zr1131   2.369       .  S
O1125     Zr1130   2.382       .  S
O1125     Zr1131   2.385       .  S
O1125      H1160   0.963       .  S
O1126     Zr2628   2.432   1_545  S
O1126     Zr1129   2.413       .  S
O1126     Zr1146   2.413       .  S
O1126      H1163   0.966       .  S
O1127     Zr1130   2.397       .  S
O1127     Zr2658   2.438       .  S
Zr1128     O1153   2.471       .  S
Zr1128     O1147   2.398       .  S
Zr1128     O1155   2.414       .  S
Zr1128     O1143   2.402       .  S
Zr1128     O1134   2.415       .  S
Zr1128     O1135   2.415       .  S
Zr1128     O1136   2.371       .  S
Zr1128     O1137   2.406       .  S
Zr1129     O1148   2.437       .  S
Zr1129     O1141   2.435       .  S
Zr1129     O1142   2.445       .  S
Zr1129     O2636   2.402   1_545  S
Zr1129     O1135   2.391       .  S
Zr1129     O1136   2.383       .  S
Zr1130     O1132   2.434       .  S
Zr1130     O1154   2.440       .  S
Zr1130     O1156   2.424       .  S
Zr1130     O2646   2.395       .  S
Zr1130     O2649   2.398       .  S
Zr1131     O1157   2.436       .  S
Zr1131     O1158   2.436       .  S
Zr1131     O1133   2.442       .  S
Zr1131     O2646   2.375       .  S
Zr1131     O2647   2.379       .  S
O1132      H1169   0.990       .  S
O1133      H1164   0.990       .  S
O1133      H1178   0.990       .  S
O1134     Zr2642   2.398   1_545  S
O1134     Zr2643   2.379   1_545  S
O1135     Zr2643   2.376   1_545  S
O1135      H1161   0.963       .  S
O1136     Zr1146   2.390       .  S
O1137     Zr2642   2.398   1_545  S
O1137     Zr1146   2.361       .  S
O1137      H1162   0.965       .  S
C1138      C1206   1.473       .  S
C1139      C1237   1.497       .  S
C1140      O2633   1.277       .  A
C1140      C1332   1.473       .  S
O1141      H1177   0.990       .  S
O1142      C1144   1.286       .  A
O1143      C1144   1.279       .  A
C1144      C1220   1.464       .  S
O1145     Zr1146   2.438       .  S
O1145      H1174   0.990       .  S
Zr1146     O1149   2.437       .  S
Zr1146     O1150   2.439       .  S
Zr1146     O1151   2.488       .  S
Zr1146     O2639   2.426   1_545  S
O1147      C1152   1.266       .  A
O1148      H1165   0.990       .  S
O1148      H1180   0.990       .  S
O1149      H1166   0.990       .  S
O1150      H1170   0.989       .  S
O1150      H1179   0.991   1_545  S
O1151      C1152   1.282       .  A
C1152      C1251   1.508       .  S
O1153      H1172   0.989       .  S
O1153      H1176   0.988       .  S
O1154      H1168   0.990       .  S
O1154      H1175   0.988       .  S
O1155      C1159   1.266       .  A
O1156      C2671   1.272       .  A
O1157      H1167   0.989       .  S
O1158      H2683   0.990       .  S
C1159      O2668   1.272       .  A
C1159      C1262   1.470       .  S
H1171      O2670   0.990       .  S
C1182      C1184   1.569       .  S
C1182      C1186   1.539       .  S
C1182      C1185   1.580       .  S
C1182      C1209   1.542       .  S
C1183      C1187   1.534       .  S
C1183      C1189   1.538       .  S
C1183      C1188   1.545       .  S
C1183      C1223   1.536       .  S
C1184      C1192   1.406       .  A
C1184      C1187   1.400       .  A
C1185      C1196   1.407       .  A
C1185      C1188   1.404       .  A
C1186      C1200   1.387       .  A
C1186      C1189   1.376       .  A
C1187      C1190   1.376       .  A
C1188      C1194   1.384       .  A
C1189      C1197   1.380       .  A
C1190      N1191   1.347       .  A
C1190      H1203   1.082       .  S
N1191      C1192   1.365       .  A
N1191      C1346   1.450       .  S
C1192      H1193   1.079       .  S
C1194      N1195   1.360       .  A
C1194      H1204   1.076       .  S
N1195      C1196   1.370       .  A
C1196      H1202   1.081       .  S
C1197      N1198   1.358       .  A
C1197      H1199   1.080       .  S
N1198      C1200   1.356       .  A
C1200      H1201   1.079       .  S
C1205      C1206   1.400       .  A
C1205      C1210   1.400       .  A
C1205      H1212   1.085       .  S
C1206      C1207   1.415       .  A
C1207      C1208   1.410       .  A
C1207      N1214   1.438       .  S
C1208      C1209   1.410       .  A
C1208      H1213   1.075       .  S
C1209      C1210   1.418       .  A
C1210      N1211   1.434       .  S
N1211      H1215   1.045       .  S
N1211      H1216   1.045       .  S
N1214      H1217   1.044       .  S
N1214      H1218   1.046       .  S
C1219      C1220   1.405       .  A
C1219      C1224   1.403       .  A
C1219      H1226   1.084       .  S
C1220      C1221   1.404       .  A
C1221      C1222   1.387       .  A
C1221      N1228   1.434       .  S
C1222      C1223   1.417       .  A
C1222      H1227   1.084       .  S
C1223      C1224   1.417       .  A
C1224      N1225   1.433       .  S
N1225      H1229   1.045       .  S
N1225      H1230   1.042       .  S
N1228      H1231   1.045       .  S
N1228      H1232   1.045       .  S
C1233      C1234   1.423       .  A
C1233      C1238   1.414       .  A
C1233      H1240   1.079       .  S
C1234      C1235   1.419       .  A
C1235      C1236   1.411       .  A
C1235      N1242   1.429       .  S
C1236      C1237   1.407       .  A
C1236      H1241   1.084       .  S
C1237      C1238   1.412       .  A
C1238      N1239   1.438       .  S
N1239      H1243   1.045       .  S
N1239      H1244   1.043       .  S
N1242      H1245   1.046       .  S
N1242      H1246   1.045       .  S
C1247      C1248   1.398       .  A
C1247      C1252   1.402       .  A
C1247      H1254   1.084       .  S
C1248      C1249   1.422       .  A
C1249      C1250   1.421       .  A
C1249      N1256   1.436       .  S
C1250      C1251   1.411       .  A
C1250      H1255   1.083       .  S
C1251      C1252   1.424       .  A
C1252      N1253   1.440       .  S
N1253      H1257   1.045       .  S
N1253      H1258   1.046       .  S
N1256      H1259   1.045       .  S
N1256      H1260   1.046       .  S
C1261      C1262   1.412       .  A
C1261      C1266   1.394       .  A
C1261      H1268   1.069       .  S
C1262      C1263   1.404       .  A
C1263      C1264   1.386   1_545  A
C1263      N1270   1.433   1_545  S
C1264      C1265   1.401   1_565  A
C1264      H1269   1.079       .  S
C1265      C1266   1.398       .  A
C1266      N1267   1.439       .  S
N1267      H1271   1.046       .  S
N1267      H1272   1.044       .  S
N1270      H1273   1.040       .  S
N1270      H1274   1.046   1_565  S
C1275      C1276   1.393       .  A
C1275      C1280   1.405       .  A
C1275      H1282   1.084       .  S
C1276      C1277   1.425       .  A
C1277      C1278   1.409       .  A
C1277      N1284   1.433       .  S
C1278      C1279   1.399       .  A
C1278      H1283   1.080       .  S
C1279      C1280   1.432       .  A
C1280      N1281   1.432       .  S
N1281      H1285   1.043       .  S
N1281      H1286   1.045       .  S
N1284      H1287   1.046       .  S
N1284      H1288   1.046       .  S
C1289      C1290   1.396       .  A
C1289      C1294   1.388       .  A
C1289      H1296   1.085       .  S
C1290      C1291   1.421       .  A
C1291      C1292   1.411       .  A
C1291      N1298   1.437       .  S
C1292      C1293   1.408       .  A
C1292      H1297   1.084       .  S
C1293      C1294   1.428       .  A
C1294      N1295   1.432       .  S
N1295      H1299   1.041       .  S
N1295      H1300   1.045       .  S
N1298      H1301   1.044       .  S
N1298      H1302   1.044       .  S
C1303      C1304   1.420       .  A
C1303      C1308   1.406       .  A
C1303      H1310   1.078       .  S
C1304      C1305   1.419       .  A
C1305      C1306   1.410       .  A
C1305      N1312   1.431       .  S
C1306      C1307   1.404       .  A
C1306      H1311   1.083       .  S
C1307      C1308   1.408       .  A
C1308      N1309   1.439       .  S
N1309      H1313   1.046       .  S
N1309      H1314   1.044       .  S
N1312      H1315   1.046       .  S
N1312      H1316   1.046       .  S
C1317      C1318   1.424       .  A
C1317      C1322   1.419       .  A
C1317      H1324   1.081       .  S
C1318      C1319   1.417       .  A
C1319      C1320   1.407       .  A
C1319      N1326   1.436       .  S
C1320      C1321   1.415       .  A
C1320      H1325   1.083       .  S
C1321      C1322   1.408       .  A
C1322      N1323   1.437       .  S
N1323      H1327   1.046       .  S
N1323      H1328   1.046       .  S
N1326      H1329   1.045       .  S
N1326      H1330   1.045       .  S
C1331      C2844   1.405   1_545  A
C1331      C1336   1.398       .  A
C1331      H1338   1.085       .  S
C1332      C2843   1.404       .  A
C1332      C1333   1.408       .  A
C1333      C1334   1.413       .  A
C1333      N1340   1.437       .  S
C1334      C1335   1.411       .  A
C1334      H1339   1.083       .  S
C1335      C2848   1.406       .  A
C1336      C2847   1.408   1_545  A
C1336      N1337   1.432       .  S
N1337      H1341   1.046       .  S
N1337      H1342   1.046       .  S
N1340      H1343   1.046       .  S
N1340      H1344   1.046       .  S
C1345      C1346   1.409       .  A
C1345      C1350   1.408       .  A
C1345      H1352   1.083       .  S
C1346      C1347   1.412       .  A
C1347      C1348   1.404       .  A
C1347      N1354   1.432       .  S
C1348      C1349   1.409       .  A
C1348      H1353   1.084       .  S
C1349      C1350   1.418       .  A
C1350      N1351   1.438       .  S
N1351      H1355   1.045       .  S
N1351      H1356   1.042       .  S
N1354      H1357   1.046       .  S
N1354      H1358   1.044       .  S
C1359      C1360   1.398       .  A
C1359      C1364   1.388       .  A
C1359      H1366   1.085       .  S
C1360      C1361   1.423       .  A
C1361      C1362   1.413       .  A
C1361      N1368   1.437       .  S
C1362      C1363   1.405       .  A
C1362      H1367   1.084       .  S
C1363      C1364   1.412       .  A
C1364      N1365   1.433       .  S
N1365      H1369   1.036       .  S
N1365      H1370   1.046       .  S
N1368      H1371   1.044       .  S
N1368      H1372   1.044       .  S
C1373      C1374   1.407       .  A
C1373      C1378   1.420       .  A
C1373      H1380   1.083       .  S
C1374      C1375   1.410       .  A
C1375      C1376   1.401       .  A
C1375      N1382   1.429       .  S
C1376      C1377   1.402       .  A
C1376      H1381   1.084       .  S
C1377      C1378   1.420       .  A
C1378      N1379   1.436       .  S
N1379      H1383   1.045       .  S
N1379      H1384   1.045       .  S
N1382      H1385   1.045       .  S
N1382      H1386   1.046       .  S
C1387      C1388   1.401       .  A
C1387      C1392   1.409       .  A
C1387      H1394   1.084       .  S
C1388      C1389   1.410       .  A
C1389      C1390   1.402       .  A
C1389      N1396   1.438       .  S
C1390      C1391   1.408       .  A
C1390      H1395   1.078       .  S
C1391      C1392   1.423       .  A
C1392      N1393   1.438       .  S
N1393      H1397   1.045       .  S
N1393      H1398   1.045       .  S
N1396      H1399   1.046   1_455  S
N1396      H1400   1.046   1_455  S
C1401      C1402   1.399       .  A
C1401      C1406   1.392       .  A
C1401      H1408   1.077       .  S
C1402      C1403   1.424       .  A
C1403      C1404   1.414       .  A
C1403      N1410   1.432       .  S
C1404      C1405   1.403       .  A
C1404      H1409   1.083       .  S
C1405      C1406   1.417       .  A
C1406      N1407   1.432       .  S
N1407      H1411   1.046       .  S
N1407      H1412   1.046   1_455  S
N1410      H1413   1.046       .  S
N1410      H1414   1.045       .  S
C1415      C2928   1.406       .  A
C1415      C1420   1.417       .  A
C1415      H1422   1.083       .  S
C1416      C2927   1.404       .  A
C1416      C1417   1.412       .  A
C1417      C1418   1.396       .  A
C1417      N1424   1.432       .  S
C1418      C1419   1.407       .  A
C1418      H1423   1.084       .  S
C1419      C2932   1.416       .  A
C1420      C2931   1.417       .  A
C1420      N1421   1.437       .  S
N1421      H1425   1.046       .  S
N1421      H1426   1.045       .  S
N1424      H1427   1.044       .  S
N1424      H1428   1.045       .  S
C1429      C1430   1.410       .  A
C1429      C1434   1.399       .  A
C1429      H1436   1.084       .  S
C1430      C1431   1.416       .  A
C1431      C1432   1.416       .  A
C1431      N1438   1.436       .  S
C1432      C1433   1.408       .  A
C1432      H1437   1.083       .  S
C1433      C1434   1.411       .  A
C1434      N1435   1.428       .  S
N1435      H1439   1.041       .  S
N1435      H1440   1.046       .  S
N1438      H1441   1.046       .  S
N1438      H1442   1.046       .  S
C1443      C1444   1.407       .  A
C1443      C1448   1.411       .  A
C1443      H1450   1.083       .  S
C1444      C1445   1.395       .  A
C1445      C1446   1.396       .  A
C1445      N1452   1.430       .  S
C1446      C1447   1.410       .  A
C1446      H1451   1.069       .  S
C1447      C1448   1.414       .  A
C1448      N1449   1.436       .  S
N1449      H1453   1.045       .  S
N1449      H1454   1.045       .  S
N1452      H1455   1.046       .  S
N1452      H1456   1.045       .  S
C1457      C1458   1.404       .  A
C1457      C1462   1.404       .  A
C1457      H1464   1.084       .  S
C1458      C1459   1.409       .  A
C1459      C1460   1.409       .  A
C1459      N1466   1.432       .  S
C1460      C1461   1.422       .  A
C1460      H1465   1.072       .  S
C1461      C1462   1.437       .  A
C1462      N1463   1.435       .  S
N1463      H1467   1.044       .  S
N1463      H1468   1.040       .  S
N1466      H1469   1.046       .  S
N1466      H1470   1.045       .  S
C1471      C1472   1.403       .  A
C1471      C1476   1.411       .  A
C1471      H1478   1.084       .  S
C1472      C1473   1.402       .  A
C1473      C1474   1.396       .  A
C1473      N1480   1.439       .  S
C1474      C1475   1.413       .  A
C1474      H1479   1.084       .  S
C1475      C1476   1.414       .  A
C1476      N1477   1.429       .  S
N1477      H1481   1.045       .  S
N1477      H1482   1.046       .  S
N1480      H1483   1.045       .  S
N1480      H1484   1.046       .  S
C1485      C1486   1.424       .  A
C1485      C1490   1.403       .  A
C1485      H1492   1.084       .  S
C1486      C1487   1.402       .  A
C1487      C1488   1.408       .  A
C1487      N1494   1.432   1_655  S
C1488      C1489   1.417       .  A
C1488      H1493   1.080       .  S
C1489      C1490   1.400       .  A
C1490      N1491   1.438       .  S
N1491      H1495   1.046       .  S
N1491      H1496   1.045       .  S
N1494      H1497   1.046       .  S
N1494      H1498   1.046       .  S
C1499      C1500   1.415       .  A
C1499      C1504   1.416       .  A
C1499      H1506   1.084       .  S
C1500      C1501   1.403       .  A
C1501      C1502   1.398       .  A
C1501      N1508   1.432       .  S
C1502      C1503   1.420       .  A
C1502      H1507   1.084       .  S
C1503      C1504   1.410       .  A
C1504      N1505   1.432   1_655  S
N1505      H1509   1.045       .  S
N1505      H1510   1.046       .  S
N1508      H1511   1.045       .  S
N1508      H1512   1.045       .  S
C1513      C1515   1.524       .  S
C1513      C1517   1.528       .  S
C1513      C1516   1.576   1_655  S
C1513      C2242   1.539       .  S
C1514      C1518   1.526       .  S
C1514      C1520   1.528       .  S
C1514      C1519   1.578   1_655  S
C1514      C2259   1.541       .  S
C1515      C1523   1.373       .  A
C1516      C1527   1.401       .  A
C1517      C1531   1.381       .  A
C1518      C1521   1.377       .  A
C1519      C1525   1.394       .  A
C1520      C1528   1.377       .  A
C1521      N1522   1.354       .  A
C1521      H1534   1.081       .  S
N1522      N1618   1.405       .  S
C1523      H1524   1.081       .  S
C1525      N1526   1.365   1_565  A
C1525      H1535   1.076       .  S
N1526      N1727   1.432       .  S
C1527      H1533   1.078       .  S
C1528      H1530   1.081       .  S
N1529      C1531   1.354       .  A
N1529      N1641   1.412   1_655  S
C1531      H1532   1.081       .  S
Zr1536     O1537   2.436       .  S
Zr1536     O1538   2.465       .  S
Zr1536     O1539   2.461       .  S
Zr1536     O1542   2.498       .  S
Zr1536     O1544   2.392       .  S
Zr1536     O1545   2.369       .  S
Zr1536     O1546   2.437       .  S
Zr1536     O1547   2.425       .  S
O1537      H1593   0.990       .  S
O1537      H1601   0.990       .  S
O1538      C1558   1.291       .  A
O1539      C1560   1.290       .  A
O1540     Zr1550   2.376       .  S
O1540      C1559   1.272       .  A
O1541     Zr1549   2.445       .  S
O1541      C1560   1.288       .  A
O1542      C1559   1.298       .  A
O1543     Zr1551   2.406       .  S
O1543      C1558   1.280       .  A
O1544     Zr1549   2.391       .  S
O1544     Zr1551   2.384       .  S
O1545     Zr1550   2.381       .  S
O1545     Zr1551   2.362       .  S
O1545      H1580   0.964       .  S
O1546     Zr1549   2.401       .  S
O1546     Zr1566   2.410       .  S
O1546      H1583   0.965       .  S
O1547     Zr1550   2.374       .  S
O1547     Zr1566   2.436       .  S
Zr1548     O1573   2.438       .  S
Zr1548     O1567   2.374       .  S
Zr1548     O1575   2.439       .  S
Zr1548     O1563   2.439       .  S
Zr1548     O1554   2.380       .  S
Zr1548     O1555   2.397       .  S
Zr1548     O1556   2.380       .  S
Zr1548     O1557   2.376       .  S
Zr1549     O1568   2.437       .  S
Zr1549     O1561   2.435       .  S
Zr1549     O1562   2.434       .  S
Zr1549     O1555   2.401       .  S
Zr1549     O1556   2.394       .  S
Zr1550     O1552   2.434       .  S
Zr1550     O1574   2.424       .  S
Zr1550     O1576   2.390       .  S
Zr1550     O1554   2.402       .  S
Zr1550     O1557   2.364       .  S
Zr1551     O1577   2.438       .  S
Zr1551     O1578   2.436       .  S
Zr1551     O1553   2.436       .  S
Zr1551     O1554   2.391       .  S
Zr1551     O1555   2.377       .  S
O1552      H1589   0.990       .  S
O1553      H1584   0.990       .  S
O1553      H1598   0.990       .  S
O1555      H1581   0.968       .  S
O1556     Zr1566   2.361       .  S
O1557     Zr1566   2.345       .  S
O1557      H1582   0.963       .  S
C1558      C2214   1.494       .  S
C1559      C2245   1.489       .  S
C1560      C2186   1.499       .  S
O1561      H1597   0.990       .  S
O1562      C1564   1.284       .  A
O1563      C1564   1.287       .  A
C1564      C2228   1.470       .  S
O1565     Zr1566   2.440       .  S
O1565      H1594   0.990       .  S
Zr1566     O1569   2.438       .  S
Zr1566     O1570   2.438       .  S
Zr1566     O1571   2.496       .  S
O1567      C1572   1.274       .  A
O1568      H1585   0.991       .  S
O1568      H1600   0.990       .  S
O1569      H1586   0.990       .  S
O1570      H1590   0.990       .  S
O1570      H1599   0.990       .  S
O1571      C1572   1.296       .  A
C1572      C2256   1.481       .  S
O1573      H1592   0.990       .  S
O1573      H1596   0.990       .  S
O1574      H1588   0.990       .  S
O1574      H1595   0.990       .  S
O1575      C1579   1.293       .  A
O1576      C1579   1.275       .  A
O1577      H1587   0.990       .  S
O1578      H1591   0.990       .  S
C1579      C2200   1.476   1_655  S
C1602      C1604   1.560       .  S
C1602      C1606   1.532       .  S
C1602      C1605   1.570       .  S
C1602      C2217   1.559       .  S
C1603      C1607   1.531       .  S
C1603      C1609   1.519       .  S
C1603      C1608   1.551       .  S
C1603      C2231   1.540       .  S
C1604      C1612   1.391       .  A
C1605      C1616   1.393       .  A
C1606      C1620   1.376       .  A
C1607      C1610   1.377       .  A
C1608      C1614   1.382       .  A
C1609      C1617   1.373       .  A
C1610      N1611   1.351       .  A
C1610      H1623   1.082       .  S
N1611      C2172   1.440       .  S
C1612      H1613   1.080       .  S
C1614      N1615   1.357   1_565  A
C1614      H1624   1.077       .  S
C1616      H1622   1.079       .  S
C1617      N1618   1.351       .  A
C1617      H1619   1.081       .  S
C1620      H1621   1.081       .  S
C1625      C1627   1.529       .  S
C1625      C1629   1.546       .  S
C1625      C1628   1.560   1_455  S
C1625      C2158   1.533       .  S
C1626      C1630   1.528       .  S
C1626      C1632   1.540       .  S
C1626      C1631   1.552   1_455  S
C1626      C2147   1.540       .  S
C1627      C1635   1.378       .  A
C1628      C1639   1.395       .  A
C1629      C1643   1.384       .  A
C1630      C1633   1.379       .  A
C1631      C1637   1.383       .  A
C1632      C1640   1.375       .  A
C1633      H1646   1.081       .  S
N1634      C1635   1.357       .  A
C1635      H1636   1.081       .  S
C1637      H1647   1.080       .  S
N1638      C1639   1.362       .  A
C1639      H1645   1.081       .  S
C1640      H1642   1.081       .  S
N1641      C2399   1.357       .  A
C1643      N2397   1.358       .  A
C1643      H1644   1.081       .  S
Zr1648     O1649   2.440       .  S
Zr1648     O1650   2.474       .  S
Zr1648     O1651   2.506       .  S
Zr1648     O1654   2.481       .  S
Zr1648     O1656   2.402       .  S
Zr1648     O1657   2.396       .  S
Zr1648     O1658   2.428       .  S
Zr1648     O1659   2.424       .  S
O1649      H1705   0.991       .  S
O1649      H1713   0.990       .  S
O1650      C1670   1.291       .  A
O1651      C1672   1.300       .  A
O1652     Zr1662   2.401       .  S
O1652      C1671   1.276       .  A
O1653     Zr1661   2.396       .  S
O1653      C1672   1.279       .  A
O1654      C1671   1.294       .  A
O1655     Zr1663   2.429       .  S
O1655      C1670   1.279       .  A
O1656     Zr1661   2.423       .  S
O1656     Zr1663   2.349       .  S
O1657     Zr1662   2.382       .  S
O1657     Zr1663   2.389       .  S
O1657      H1692   0.965       .  S
O1658     Zr1661   2.426       .  S
O1658     Zr1678   2.403       .  S
O1658      H1695   0.968       .  S
O1659     Zr1662   2.406       .  S
O1659     Zr1678   2.412       .  S
Zr1660     O1685   2.463       .  S
Zr1660     O1679   2.425       .  S
Zr1660     O1687   2.409       .  S
Zr1660     O1675   2.367       .  S
Zr1660     O1667   2.436       .  S
Zr1660     O1668   2.362       .  S
Zr1660     O1669   2.369       .  S
Zr1660     O1666   2.284       .  S
Zr1661     O1680   2.438       .  S
Zr1661     O1673   2.435       .  S
Zr1661     O1674   2.483       .  S
Zr1661     O1667   2.383       .  S
Zr1661     O1668   2.387       .  S
Zr1662     O1664   2.437       .  S
Zr1662     O1686   2.437       .  S
Zr1662     O1688   2.440       .  S
Zr1662     O1669   2.397       .  S
Zr1662     O1666   2.256       .  S
Zr1663     O1689   2.430       .  S
Zr1663     O1690   2.438       .  S
Zr1663     O1665   2.447       .  S
Zr1663     O1667   2.388       .  S
Zr1663     O1666   2.307       .  S
O1664      H1701   0.990   1_455  S
O1665      H1696   0.990       .  S
O1665      H1710   0.990       .  S
O1667      H1693   0.967       .  S
O1668     Zr1678   2.382       .  S
O1669     Zr1678   2.395       .  S
O1669      H1694   0.968       .  S
C1670      C2130   1.487       .  S
C1671      C2161   1.500       .  S
C1672      C2105   1.489       .  S
O1673      H1709   0.990       .  S
O1674      C1676   1.293       .  A
O1675      C1676   1.272       .  A
C1676      C2119   1.460       .  S
O1677     Zr1678   2.439       .  S
O1677      H1706   0.991       .  S
Zr1678     O1681   2.439       .  S
Zr1678     O1682   2.438       .  S
Zr1678     O1683   2.433       .  S
O1679      C1684   1.279       .  A
O1680      H1697   0.990       .  S
O1680      H1712   0.990       .  S
O1681      H1698   0.990       .  S
O1682      H1702   0.990       .  S
O1682      H1711   0.990       .  S
O1683      C1684   1.281       .  A
C1684      C2144   1.489       .  S
O1685      H1704   0.989       .  S
O1685      H1708   0.988       .  S
O1686      H1700   0.989   1_455  S
O1686      H1707   0.990       .  S
O1687      C1691   1.267       .  A
O1688      C1691   1.278       .  A
O1689      H1699   0.990       .  S
O1690      H1703   0.989       .  S
C1691      C2203   1.475       .  S
C1714      C1716   1.568       .  S
C1714      C1718   1.547       .  S
C1714      C1717   1.560       .  S
C1714      C2133   1.544       .  S
C1715      C1719   1.537       .  S
C1715      C1721   1.549       .  S
C1715      C1720   1.535       .  S
C1715      C2116   1.532       .  S
C1716      C1724   1.398       .  A
C1717      C1728   1.402       .  A
C1718      C1732   1.389       .  A
C1719      C1722   1.383       .  A
C1720      C1726   1.384       .  A
C1721      C1729   1.384       .  A
C1722      N1723   1.345       .  A
C1722      H1735   1.077       .  S
N1723      C2091   1.449       .  S
C1724      H1725   1.081       .  S
C1726      N1727   1.363   1_565  A
C1726      H1736   1.081       .  S
C1728      H1734   1.081       .  S
C1729      N1730   1.351   1_565  A
C1729      H1731   1.074       .  S
C1732      H1733   1.078       .  S
C1737      C1739   1.530       .  S
C1737      C1741   1.542       .  S
C1737      C1740   1.567       .  S
C1737      C2060   1.546       .  S
C1738      C1742   1.527       .  S
C1738      C1744   1.546       .  S
C1738      C1743   1.570       .  S
C1738      C2074   1.553       .  S
C1739      C1747   1.374       .  A
C1739      C1742   1.384       .  A
C1740      C1751   1.401       .  A
C1740      C1743   1.412       .  A
C1741      C1755   1.382       .  A
C1741      C1744   1.396       .  A
C1742      C1745   1.384       .  A
C1743      C1749   1.391       .  A
C1744      C1752   1.380       .  A
C1745      N1746   1.353       .  A
C1745      H1758   1.080       .  S
N1746      C1747   1.350       .  A
N1746      N1842   1.409       .  S
C1747      H1748   1.077       .  S
C1749      N1750   1.366       .  A
C1749      H1759   1.080       .  S
N1750      C1751   1.366       .  A
N1750      N1951   1.432       .  S
C1751      H1757   1.081       .  S
C1752      N1753   1.363       .  A
C1752      H1754   1.081       .  S
N1753      C1755   1.356       .  A
N1753      N2621   1.416   1_554  S
C1755      H1756   1.081       .  S
Zr1760     O1761   2.436       .  S
Zr1760     O1762   2.504       .  S
Zr1760     O1763   2.459       .  S
Zr1760     O1766   2.487       .  S
Zr1760     O1768   2.388       .  S
Zr1760     O1769   2.373       .  S
Zr1760     O1771   2.435       .  S
O1761      H1817   0.990       .  S
O1761      H1825   0.990       .  S
O1762      C1782   1.299       .  A
O1763      C1784   1.292       .  A
O1764     Zr1774   2.395       .  S
O1764      C1783   1.271       .  A
O1765     Zr1773   2.439       .  S
O1766      C1783   1.292       .  A
O1767     Zr1775   2.377       .  S
O1767      C1782   1.272       .  A
O1768     Zr1775   2.357       .  S
O1769     Zr1774   2.394       .  S
O1769     Zr1775   2.378       .  S
O1769      H1804   0.965       .  S
O1770     Zr1773   2.407       .  S
O1770     Zr1790   2.413       .  S
O1770      H1807   0.965       .  S
O1771     Zr1774   2.385       .  S
Zr1772     O1797   2.428       .  S
Zr1772     O1791   2.372       .  S
Zr1772     O1799   2.453       .  S
Zr1772     O1787   2.430       .  S
Zr1772     O1779   2.402       .  S
Zr1772     O1780   2.375       .  S
Zr1772     O1781   2.388       .  S
Zr1773     O1792   2.436       .  S
Zr1773     O1785   2.436       .  S
Zr1773     O1786   2.460       .  S
Zr1773     O1779   2.396       .  S
Zr1773     O1780   2.389       .  S
Zr1774     O1776   2.435       .  S
Zr1774     O1798   2.440       .  S
Zr1774     O1800   2.381       .  S
Zr1774     O1778   2.417       .  S
Zr1775     O1801   2.433       .  S
Zr1775     O1802   2.435       .  S
Zr1775     O1777   2.442       .  S
Zr1775     O1778   2.391       .  S
O1776      H1813   0.990       .  S
O1777      H1808   0.990       .  S
O1777      H1822   0.990       .  S
O1779      H1805   0.967       .  S
O1780     Zr1790   2.362       .  S
O1781     Zr1790   2.346       .  S
O1781      H1806   0.967       .  S
C1782      C2032   1.505       .  S
C1783      C2063   1.480       .  S
C1784      C2175   1.491       .  S
O1785      H1821   0.990       .  S
O1786      C1788   1.291       .  A
O1787      C1788   1.283       .  A
C1788      C2049   1.501       .  S
O1789     Zr1790   2.438       .  S
O1789      H1818   0.990       .  S
Zr1790     O1793   2.437       .  S
Zr1790     O1794   2.438       .  S
Zr1790     O1795   2.523       .  S
O1791      C1796   1.274       .  A
O1792      H1809   0.991       .  S
O1792      H1824   0.990       .  S
O1793      H1810   0.990       .  S
O1794      H1814   0.990       .  S
O1794      H1823   0.990       .  S
O1795      C1796   1.300       .  A
C1796      C2077   1.518       .  S
O1797      H1816   0.990       .  S
O1797      H1820   0.989       .  S
O1798      H1812   0.990       .  S
O1798      H1819   0.989       .  S
O1799      C1803   1.277       .  A
O1801      H1811   0.990       .  S
C1803      C2021   1.436       .  S
C1826      C1828   1.557       .  S
C1826      C1830   1.528       .  S
C1826      C1829   1.578       .  S
C1826      C2035   1.552       .  S
C1827      C1831   1.545       .  S
C1827      C1833   1.541       .  S
C1827      C1832   1.551       .  S
C1827      C2046   1.545       .  S
C1828      C1836   1.390       .  A
C1828      C1831   1.407       .  A
C1829      C1840   1.414       .  A
C1829      C1832   1.405       .  A
C1830      C1844   1.369       .  A
C1830      C1833   1.382       .  A
C1831      C1834   1.389       .  A
C1832      C1838   1.384       .  A
C1833      C1841   1.384       .  A
C1834      N1835   1.353       .  A
C1834      H1847   1.078       .  S
N1835      C1836   1.359       .  A
N1835      C2189   1.447       .  S
C1836      H1837   1.082       .  S
C1838      N1839   1.361       .  A
C1838      H1848   1.080       .  S
N1839      C1840   1.370       .  A
N1839      N1862   1.435       .  S
C1840      H1846   1.080       .  S
C1841      N1842   1.356       .  A
C1841      H1843   1.080       .  S
N1842      C1844   1.353       .  A
C1844      H1845   1.079       .  S
C1849      C1851   1.535       .  S
C1849      C1853   1.560       .  S
C1849      C1852   1.575       .  S
C1849      C1990   1.550       .  S
C1850      C1854   1.544       .  S
C1850      C1856   1.540       .  S
C1850      C1855   1.550       .  S
C1850      C2004   1.543       .  S
C1851      C1859   1.383       .  A
C1851      C1854   1.378       .  A
C1852      C1863   1.410       .  A
C1852      C1855   1.401       .  A
C1853      C1867   1.388       .  A
C1853      C1856   1.402       .  A
C1854      C1857   1.385       .  A
C1855      C1861   1.381       .  A
C1856      C1864   1.378       .  A
C1857      N1858   1.354       .  A
C1857      H1870   1.078       .  S
N1858      C1859   1.357       .  A
N1858      N1954   1.415       .  S
C1859      H1860   1.081       .  S
C1861      N1862   1.363       .  A
C1861      H1871   1.080       .  S
N1862      C1863   1.373       .  A
C1863      H1869   1.081       .  S
C1864      N1865   1.354       .  A
C1864      H1866   1.075       .  S
N1865      C1867   1.362       .  A
N1865      N2509   1.416       .  S
C1867      H1868   1.081       .  S
Zr1872     O1873   2.436       .  S
Zr1872     O1874   2.486       .  S
Zr1872     O1875   2.493       .  S
Zr1872     O1878   2.497       .  S
Zr1872     O1880   2.394       .  S
Zr1872     O1881   2.371       .  S
Zr1872     O1883   2.426       .  S
O1873      H1929   0.990       .  S
O1873      H1937   0.990       .  S
O1874      C1894   1.295       .  A
O1875      C1896   1.296       .  A
O1876     Zr1886   2.393       .  S
O1876      C1895   1.276       .  A
O1877     Zr1885   2.393       .  S
O1878      C1895   1.298       .  A
O1879     Zr1887   2.390       .  S
O1879      C1894   1.275       .  A
O1880     Zr1887   2.369       .  S
O1881     Zr1886   2.385       .  S
O1881     Zr1887   2.382       .  S
O1881      H1916   0.963       .  S
O1882     Zr1885   2.408       .  S
O1882     Zr1902   2.414       .  S
O1882      H1919   0.967       .  S
O1883     Zr1886   2.395       .  S
Zr1884     O1909   2.463       .  S
Zr1884     O1903   2.353       .  S
Zr1884     O1911   2.403       .  S
Zr1884     O1899   2.382       .  S
Zr1884     O1890   2.390       .  S
Zr1884     O1891   2.403       .  S
Zr1884     O1892   2.375       .  S
Zr1884     O1893   2.385       .  S
Zr1885     O1904   2.438       .  S
Zr1885     O1897   2.434       .  S
Zr1885     O1898   2.443       .  S
Zr1885     O1891   2.390       .  S
Zr1885     O1892   2.390       .  S
Zr1886     O1888   2.434       .  S
Zr1886     O1910   2.442       .  S
Zr1886     O1912   2.423   1_565  S
Zr1887     O1913   2.434       .  S
Zr1887     O1914   2.436   1_565  S
Zr1887     O1889   2.441       .  S
O1888      H1925   0.990       .  S
O1889      H1920   0.990       .  S
O1889      H1934   0.990       .  S
O1891      H1917   0.964       .  S
O1892     Zr1902   2.384       .  S
O1893     Zr1902   2.361       .  S
O1893      H1918   0.964       .  S
C1894      C1962   1.476       .  S
C1895      C1993   1.491       .  S
C1896      C2088   1.481       .  S
O1897      H1933   0.989       .  S
O1898      C1900   1.285       .  A
O1899      C1900   1.272       .  A
C1900      C1976   1.459       .  S
O1901     Zr1902   2.438       .  S
O1901      H1930   0.991       .  S
Zr1902     O1905   2.437       .  S
Zr1902     O1906   2.439       .  S
Zr1902     O1907   2.487       .  S
O1903      C1908   1.265       .  A
O1904      H1921   0.990       .  S
O1904      H1936   0.990       .  S
O1905      H1922   0.990       .  S
O1906      H1926   0.990       .  S
O1906      H1935   0.989       .  S
O1907      C1908   1.289       .  A
C1908      C2007   1.494       .  S
O1909      H1928   0.991       .  S
O1909      H1932   0.989       .  S
O1910      H1924   0.990       .  S
O1910      H1931   0.988       .  S
O1911      C1915   1.264       .  A
O1913      H1923   0.989       .  S
C1915      C2018   1.466       .  S
C1938      C1940   1.569       .  S
C1938      C1942   1.537       .  S
C1938      C1941   1.583       .  S
C1938      C1965   1.545       .  S
C1939      C1943   1.532       .  S
C1939      C1945   1.540       .  S
C1939      C1944   1.546       .  S
C1939      C1979   1.535       .  S
C1940      C1948   1.406       .  A
C1940      C1943   1.397       .  A
C1941      C1952   1.406       .  A
C1941      C1944   1.407       .  A
C1942      C1956   1.385       .  A
C1942      C1945   1.375       .  A
C1943      C1946   1.376       .  A
C1944      C1950   1.384       .  A
C1945      C1953   1.381       .  A
C1946      N1947   1.345       .  A
C1946      H1959   1.083       .  S
N1947      C1948   1.363       .  A
N1947      C2102   1.449       .  S
C1948      H1949   1.079       .  S
C1950      N1951   1.360       .  A
C1950      H1960   1.077       .  S
N1951      C1952   1.371       .  A
C1952      H1958   1.081       .  S
C1953      N1954   1.358       .  A
C1953      H1955   1.081       .  S
N1954      C1956   1.356       .  A
C1956      H1957   1.079       .  S
C1961      C1962   1.402       .  A
C1961      C1966   1.403       .  A
C1961      H1968   1.085       .  S
C1962      C1963   1.414       .  A
C1963      C1964   1.409       .  A
C1963      N1970   1.438       .  S
C1964      C1965   1.410       .  A
C1964      H1969   1.075       .  S
C1965      C1966   1.417       .  A
C1966      N1967   1.433       .  S
N1967      H1971   1.045       .  S
N1967      H1972   1.045       .  S
N1970      H1973   1.044       .  S
N1970      H1974   1.046       .  S
C1975      C1976   1.407       .  A
C1975      C1980   1.402       .  A
C1975      H1982   1.084       .  S
C1976      C1977   1.398       .  A
C1977      C1978   1.385       .  A
C1977      N1984   1.433       .  S
C1978      C1979   1.420       .  A
C1978      H1983   1.084       .  S
C1979      C1980   1.417       .  A
C1980      N1981   1.433       .  S
N1981      H1985   1.045       .  S
N1981      H1986   1.041       .  S
N1984      H1987   1.045       .  S
N1984      H1988   1.046       .  S
C1989      C1990   1.423       .  A
C1989      C1994   1.411       .  A
C1989      H1996   1.079       .  S
C1990      C1991   1.417       .  A
C1991      C1992   1.408       .  A
C1991      N1998   1.429       .  S
C1992      C1993   1.406       .  A
C1992      H1997   1.084       .  S
C1993      C1994   1.410       .  A
C1994      N1995   1.438       .  S
N1995      H1999   1.045       .  S
N1995      H2000   1.043       .  S
N1998      H2001   1.046       .  S
N1998      H2002   1.045       .  S
C2003      C2004   1.394       .  A
C2003      C2008   1.391       .  A
C2003      H2010   1.084       .  S
C2004      C2005   1.422       .  A
C2005      C2006   1.419       .  A
C2005      N2012   1.436       .  S
C2006      C2007   1.407       .  A
C2006      H2011   1.083       .  S
C2007      C2008   1.424       .  A
C2008      N2009   1.441       .  S
N2009      H2013   1.046       .  S
N2009      H2014   1.046       .  S
N2012      H2015   1.045       .  S
N2012      H2016   1.046       .  S
C2017      C2018   1.410       .  A
C2017      C2022   1.388       .  A
C2017      H2024   1.068       .  S
C2018      C2019   1.401       .  A
C2019      C2020   1.386       .  A
C2019      N2026   1.428       .  S
C2020      C2021   1.399       .  A
C2020      H2025   1.082       .  S
C2021      C2022   1.392       .  A
C2022      N2023   1.438       .  S
N2023      H2027   1.046       .  S
N2023      H2028   1.045       .  S
N2026      H2029   1.040       .  S
N2026      H2030   1.045       .  S
C2031      C2032   1.397       .  A
C2031      C2036   1.410       .  A
C2031      H2038   1.084       .  S
C2032      C2033   1.426       .  A
C2033      C2034   1.407       .  A
C2033      N2040   1.433       .  S
C2034      C2035   1.398       .  A
C2034      H2039   1.078       .  S
C2035      C2036   1.430       .  A
C2036      N2037   1.431       .  S
N2037      H2041   1.044       .  S
N2037      H2042   1.045       .  S
N2040      H2043   1.045       .  S
N2040      H2044   1.046       .  S
C2045      C2046   1.404       .  A
C2045      C2050   1.396       .  A
C2045      H2052   1.084       .  S
C2046      C2047   1.420       .  A
C2047      C2048   1.410       .  A
C2047      N2054   1.437       .  S
C2048      C2049   1.410       .  A
C2048      H2053   1.083       .  S
C2049      C2050   1.423       .  A
C2050      N2051   1.431       .  S
N2051      H2055   1.044       .  S
N2051      H2056   1.045       .  S
N2054      H2057   1.044       .  S
N2054      H2058   1.044       .  S
C2059      C2060   1.420       .  A
C2059      C2064   1.405       .  A
C2059      H2066   1.078       .  S
C2060      C2061   1.419       .  A
C2061      C2062   1.409       .  A
C2061      N2068   1.431       .  S
C2062      C2063   1.404       .  A
C2062      H2067   1.084       .  S
C2063      C2064   1.408       .  A
C2064      N2065   1.439       .  S
N2065      H2069   1.046       .  S
N2065      H2070   1.044       .  S
N2068      H2071   1.046       .  S
N2068      H2072   1.046       .  S
C2073      C2074   1.424       .  A
C2073      C2078   1.423       .  A
C2073      H2080   1.081       .  S
C2074      C2075   1.414       .  A
C2075      C2076   1.402       .  A
C2075      N2082   1.430       .  S
C2076      C2077   1.415       .  A
C2076      H2081   1.083       .  S
C2077      C2078   1.411       .  A
C2078      N2079   1.437       .  S
N2079      H2083   1.046       .  S
N2079      H2084   1.045       .  S
N2082      H2085   1.046       .  S
N2082      H2086   1.046       .  S
C2087      C2092   1.402       .  A
C2087      H2094   1.084       .  S
C2088      C2089   1.408       .  A
C2089      C2090   1.415       .  A
C2089      N2096   1.437       .  S
C2090      C2091   1.414       .  A
C2090      H2095   1.082       .  S
C2092      N2093   1.432       .  S
N2093      H2097   1.046       .  S
N2093      H2098   1.045       .  S
N2096      H2099   1.046       .  S
N2096      H2100   1.046       .  S
C2101      C2102   1.410       .  A
C2101      C2106   1.409       .  A
C2101      H2108   1.084       .  S
C2102      C2103   1.411       .  A
C2103      C2104   1.403       .  A
C2103      N2110   1.432       .  S
C2104      C2105   1.410       .  A
C2104      H2109   1.084       .  S
C2105      C2106   1.418       .  A
C2106      N2107   1.438       .  S
N2107      H2111   1.046       .  S
N2107      H2112   1.042       .  S
N2110      H2113   1.046       .  S
N2110      H2114   1.044       .  S
C2115      C2116   1.397       .  A
C2115      C2120   1.386       .  A
C2115      H2122   1.085       .  S
C2116      C2117   1.421       .  A
C2117      C2118   1.409       .  A
C2117      N2124   1.437       .  S
C2118      C2119   1.404       .  A
C2118      H2123   1.084       .  S
C2119      C2120   1.411       .  A
C2120      N2121   1.434       .  S
N2121      H2125   1.037       .  S
N2121      H2126   1.046       .  S
N2124      H2127   1.044       .  S
N2124      H2128   1.044       .  S
C2129      C2130   1.406       .  A
C2129      C2134   1.420       .  A
C2129      H2136   1.083       .  S
C2130      C2131   1.408       .  A
C2131      C2132   1.400       .  A
C2131      N2138   1.429       .  S
C2132      C2133   1.402       .  A
C2132      H2137   1.084       .  S
C2133      C2134   1.420       .  A
C2134      N2135   1.436       .  S
N2135      H2139   1.045       .  S
N2135      H2140   1.046       .  S
N2138      H2141   1.045       .  S
N2138      H2142   1.045       .  S
C2143      C2144   1.402       .  A
C2143      C2148   1.411       .  A
C2143      H2150   1.084       .  S
C2144      C2145   1.411       .  A
C2145      C2146   1.403       .  A
C2145      N2152   1.438       .  S
C2146      C2147   1.408       .  A
C2146      H2151   1.077       .  S
C2147      C2148   1.424       .  A
C2148      N2149   1.438       .  S
N2149      H2153   1.045       .  S
N2149      H2154   1.045       .  S
N2152      H2155   1.046   1_455  S
N2152      H2156   1.046   1_455  S
C2157      C2158   1.400       .  A
C2157      C2162   1.395       .  A
C2157      H2164   1.077       .  S
C2158      C2159   1.424       .  A
C2159      C2160   1.415       .  A
C2159      N2166   1.431       .  S
C2160      C2161   1.403       .  A
C2160      H2165   1.083       .  S
C2161      C2162   1.419       .  A
C2162      N2163   1.432       .  S
N2163      H2167   1.046       .  S
N2163      H2168   1.046   1_455  S
N2166      H2169   1.046       .  S
N2166      H2170   1.045       .  S
C2171      C2176   1.413       .  A
C2171      H2178   1.083       .  S
C2172      C2173   1.411   1_565  A
C2173      C2174   1.397       .  A
C2173      N2180   1.432       .  S
C2174      C2175   1.407   1_545  A
C2174      H2179   1.084       .  S
C2176      N2177   1.437       .  S
N2177      H2181   1.045       .  S
N2177      H2182   1.046       .  S
N2180      H2183   1.044       .  S
N2180      H2184   1.046       .  S
C2185      C2186   1.408       .  A
C2185      C2190   1.403       .  A
C2185      H2192   1.084       .  S
C2186      C2187   1.419       .  A
C2187      C2188   1.414       .  A
C2187      N2194   1.437       .  S
C2188      C2189   1.403       .  A
C2188      H2193   1.083       .  S
C2189      C2190   1.411       .  A
C2190      N2191   1.428       .  S
N2191      H2195   1.040       .  S
N2191      H2196   1.046       .  S
N2194      H2197   1.045       .  S
N2194      H2198   1.046       .  S
C2199      C2200   1.405       .  A
C2199      C2204   1.412       .  A
C2199      H2206   1.083       .  S
C2200      C2201   1.395       .  A
C2201      C2202   1.400       .  A
C2201      N2208   1.430       .  S
C2202      C2203   1.414       .  A
C2202      H2207   1.071       .  S
C2203      C2204   1.416       .  A
C2204      N2205   1.436       .  S
N2205      H2209   1.045       .  S
N2205      H2210   1.045       .  S
N2208      H2211   1.046       .  S
N2208      H2212   1.045       .  S
C2213      C2214   1.402       .  A
C2213      C2218   1.401       .  A
C2213      H2220   1.085       .  S
C2214      C2215   1.407       .  A
C2215      C2216   1.404       .  A
C2215      N2222   1.433       .  S
C2216      C2217   1.420       .  A
C2216      H2221   1.069       .  S
C2217      C2218   1.438       .  A
C2218      N2219   1.437       .  S
N2219      H2223   1.045       .  S
N2219      H2224   1.038       .  S
N2222      H2225   1.046       .  S
N2222      H2226   1.044       .  S
C2227      C2228   1.404       .  A
C2227      C2232   1.413       .  A
C2227      H2234   1.084       .  S
C2228      C2229   1.402       .  A
C2229      C2230   1.396       .  A
C2229      N2236   1.439       .  S
C2230      C2231   1.414       .  A
C2230      H2235   1.084       .  S
C2231      C2232   1.415       .  A
C2232      N2233   1.429       .  S
N2233      H2237   1.046       .  S
N2233      H2238   1.046       .  S
N2236      H2239   1.045       .  S
N2236      H2240   1.046       .  S
C2241      C2242   1.424       .  A
C2241      C2246   1.402       .  A
C2241      H2248   1.084       .  S
C2242      C2243   1.403       .  A
C2243      C2244   1.410       .  A
C2243      N2250   1.433   1_655  S
C2244      C2245   1.419       .  A
C2244      H2249   1.080       .  S
C2245      C2246   1.398       .  A
C2246      N2247   1.437       .  S
N2247      H2251   1.046       .  S
N2247      H2252   1.046       .  S
N2250      H2253   1.046       .  S
N2250      H2254   1.045       .  S
C2255      C2256   1.414       .  A
C2255      C2260   1.412       .  A
C2255      H2262   1.084       .  S
C2256      C2257   1.402       .  A
C2257      C2258   1.396       .  A
C2257      N2264   1.433       .  S
C2258      C2259   1.422       .  A
C2258      H2263   1.084       .  S
C2259      C2260   1.407       .  A
C2260      N2261   1.432   1_655  S
N2261      H2265   1.046       .  S
N2261      H2266   1.046       .  S
N2264      H2267   1.045       .  S
N2264      H2268   1.045       .  S
C2269      C2271   1.522       .  S
C2269      C2273   1.526       .  S
C2269      C2272   1.579   1_655  S
C2269      C2998   1.541       .  S
C2270      C2274   1.530       .  S
C2270      C2276   1.530       .  S
C2270      C2275   1.576   1_655  S
C2270      C3015   1.544       .  S
C2271      C2279   1.371       .  A
C2272      C2283   1.402       .  A
C2273      C2287   1.379       .  A
C2274      C2277   1.381       .  A
C2275      C2281   1.392       .  A
C2276      C2284   1.378       .  A
C2277      N2278   1.357       .  A
C2277      H2290   1.081       .  S
N2278      N2374   1.408       .  S
C2279      H2280   1.081       .  S
C2281      N2282   1.365   1_565  A
C2281      H2291   1.076       .  S
N2282      N2483   1.432       .  S
C2283      H2289   1.078       .  S
C2284      H2286   1.081       .  S
N2285      C2287   1.352       .  A
N2285      N2397   1.411   1_656  S
C2287      H2288   1.081       .  S
Zr2292     O2293   2.438       .  S
Zr2292     O2294   2.472       .  S
Zr2292     O2295   2.483       .  S
Zr2292     O2298   2.492       .  S
Zr2292     O2300   2.387       .  S
Zr2292     O2301   2.377       .  S
Zr2292     O2302   2.429       .  S
Zr2292     O2303   2.334       .  S
O2293      H2349   0.991       .  S
O2293      H2357   0.990       .  S
O2294      C2314   1.292       .  A
O2295      C2316   1.294       .  A
O2296     Zr2306   2.383       .  S
O2296      C2315   1.274       .  A
O2297     Zr2305   2.424       .  S
O2297      C2316   1.284       .  A
O2298      C2315   1.296       .  A
O2299     Zr2307   2.400       .  S
O2299      C2314   1.278       .  A
O2300     Zr2305   2.393       .  S
O2300     Zr2307   2.388       .  S
O2301     Zr2306   2.382       .  S
O2301     Zr2307   2.367       .  S
O2301      H2336   0.967       .  S
O2302     Zr2305   2.401       .  S
O2302     Zr2322   2.411       .  S
O2302      H2339   0.966       .  S
O2303     Zr2306   2.278       .  S
O2303     Zr2322   2.339       .  S
Zr2304     O2329   2.440       .  S
Zr2304     O2323   2.372       .  S
Zr2304     O2331   2.440       .  S
Zr2304     O2319   2.446       .  S
Zr2304     O2310   2.388       .  S
Zr2304     O2311   2.392       .  S
Zr2304     O2312   2.383       .  S
Zr2304     O2313   2.380       .  S
Zr2305     O2324   2.438       .  S
Zr2305     O2317   2.435       .  S
Zr2305     O2318   2.420       .  S
Zr2305     O2311   2.397       .  S
Zr2305     O2312   2.399       .  S
Zr2306     O2308   2.435       .  S
Zr2306     O2330   2.426       .  S
Zr2306     O2332   2.391       .  S
Zr2306     O2310   2.407       .  S
Zr2306     O2313   2.367       .  S
Zr2307     O2333   2.436       .  S
Zr2307     O2334   2.437       .  S
Zr2307     O2309   2.438       .  S
Zr2307     O2310   2.394       .  S
Zr2307     O2311   2.374       .  S
O2308      H2345   0.990       .  S
O2309      H2340   0.990       .  S
O2309      H2354   0.990       .  S
O2311      H2337   0.966       .  S
O2312     Zr2322   2.364       .  S
O2313     Zr2322   2.340       .  S
O2313      H2338   0.964       .  S
C2314      C2970   1.495       .  S
C2315      C3001   1.494       .  S
C2316      C2942   1.506       .  S
O2317      H2353   0.990       .  S
O2318      C2320   1.282       .  A
O2319      C2320   1.287       .  A
C2320      C2984   1.469       .  S
O2321     Zr2322   2.439       .  S
O2321      H2350   0.991       .  S
Zr2322     O2325   2.437       .  S
Zr2322     O2326   2.441       .  S
Zr2322     O2327   2.505       .  S
O2323      C2328   1.273       .  A
O2324      H2341   0.990       .  S
O2324      H2356   0.990       .  S
O2325      H2342   0.990       .  S
O2326      H2346   0.990       .  S
O2326      H2355   0.989       .  S
O2327      C2328   1.297       .  A
C2328      C3012   1.484       .  S
O2329      H2348   0.990       .  S
O2329      H2352   0.991       .  S
O2330      H2344   0.991       .  S
O2330      H2351   0.989       .  S
O2331      C2335   1.293   1_655  A
O2332      C2335   1.274   1_655  A
O2333      H2343   0.990       .  S
O2334      H2347   0.990       .  S
C2335      C2956   1.476       .  S
C2358      C2360   1.557       .  S
C2358      C2362   1.533       .  S
C2358      C2361   1.569       .  S
C2358      C2973   1.558       .  S
C2359      C2363   1.535       .  S
C2359      C2365   1.522       .  S
C2359      C2364   1.552       .  S
C2359      C2987   1.540       .  S
C2360      C2368   1.390       .  A
C2361      C2372   1.390       .  A
C2362      C2376   1.375       .  A
C2363      C2366   1.379       .  A
C2364      C2370   1.381       .  A
C2365      C2373   1.377       .  A
C2366      N2367   1.352       .  A
C2366      H2379   1.082       .  S
N2367      C2928   1.444       .  S
C2368      H2369   1.081       .  S
C2370      N2371   1.357   1_565  A
C2370      H2380   1.075       .  S
C2372      H2378   1.077       .  S
C2373      N2374   1.352       .  A
C2373      H2375   1.081       .  S
C2376      H2377   1.080       .  S
C2381      C2383   1.529       .  S
C2381      C2385   1.544       .  S
C2381      C2384   1.559   1_455  S
C2381      C2914   1.533       .  S
C2382      C2386   1.526       .  S
C2382      C2388   1.539       .  S
C2382      C2387   1.551   1_455  S
C2382      C2903   1.537       .  S
C2383      C2391   1.377       .  A
C2384      C2395   1.394       .  A
C2385      C2399   1.383       .  A
C2386      C2389   1.376       .  A
C2387      C2393   1.381       .  A
C2388      C2396   1.374       .  A
C2389      H2402   1.081       .  S
N2390      C2391   1.358       .  A
C2391      H2392   1.081       .  S
C2393      H2403   1.080       .  S
N2394      C2395   1.361       .  A
C2395      H2401   1.081       .  S
C2396      H2398   1.081       .  S
C2399      H2400   1.081       .  S
Zr2404     O2405   2.438       .  S
Zr2404     O2406   2.477       .  S
Zr2404     O2407   2.507       .  S
Zr2404     O2410   2.476       .  S
Zr2404     O2412   2.402       .  S
Zr2404     O2413   2.396       .  S
Zr2404     O2414   2.430       .  S
Zr2404     O2415   2.422       .  S
O2405      H2461   0.990       .  S
O2405      H2469   0.990       .  S
O2406      C2426   1.292       .  A
O2407      C2428   1.301       .  A
O2408     Zr2418   2.397       .  S
O2408      C2427   1.277       .  A
O2409     Zr2417   2.399       .  S
O2409      C2428   1.280       .  A
O2410      C2427   1.294       .  A
O2411     Zr2419   2.440       .  S
O2411      C2426   1.281       .  A
O2412     Zr2417   2.424       .  S
O2412     Zr2419   2.344       .  S
O2413     Zr2418   2.378       .  S
O2413     Zr2419   2.386       .  S
O2413      H2448   0.965       .  S
O2414     Zr2417   2.423       .  S
O2414     Zr2434   2.404       .  S
O2414      H2451   0.967       .  S
O2415     Zr2418   2.398       .  S
O2415     Zr2434   2.404       .  S
Zr2416     O2441   2.463       .  S
Zr2416     O2435   2.427       .  S
Zr2416     O2443   2.404       .  S
Zr2416     O2431   2.361       .  S
Zr2416     O2423   2.441       .  S
Zr2416     O2424   2.363       .  S
Zr2416     O2425   2.368       .  S
Zr2416     O2422   2.284       .  S
Zr2417     O2436   2.437       .  S
Zr2417     O2429   2.433       .  S
Zr2417     O2430   2.490       .  S
Zr2417     O2423   2.383       .  S
Zr2417     O2424   2.384       .  S
Zr2418     O2420   2.437   1_455  S
Zr2418     O2442   2.435       .  S
Zr2418     O2444   2.437       .  S
Zr2418     O2425   2.395       .  S
Zr2418     O2422   2.250       .  S
Zr2419     O2445   2.432       .  S
Zr2419     O2446   2.438       .  S
Zr2419     O2421   2.443       .  S
Zr2419     O2423   2.395       .  S
Zr2419     O2422   2.310       .  S
O2420      H2457   0.990       .  S
O2421      H2452   0.991       .  S
O2421      H2466   0.990       .  S
O2423      H2449   0.965       .  S
O2424     Zr2434   2.383       .  S
O2425     Zr2434   2.396       .  S
O2425      H2450   0.969       .  S
C2426      C2886   1.493       .  S
C2427      C2917   1.496       .  S
C2428      C2861   1.492       .  S
O2429      H2465   0.990       .  S
O2430      C2432   1.294       .  A
O2431      C2432   1.272       .  A
C2432      C2875   1.461       .  S
O2433     Zr2434   2.436       .  S
O2433      H2462   0.990       .  S
Zr2434     O2437   2.437       .  S
Zr2434     O2438   2.437       .  S
Zr2434     O2439   2.438       .  S
O2435      C2440   1.279       .  A
O2436      H2453   0.990       .  S
O2436      H2468   0.990       .  S
O2437      H2454   0.991       .  S
O2438      H2458   0.990       .  S
O2438      H2467   0.990       .  S
O2439      C2440   1.283       .  A
C2440      C2900   1.491       .  S
O2441      H2460   0.991       .  S
O2441      H2464   0.985       .  S
O2442      H2456   0.989   1_455  S
O2442      H2463   0.990       .  S
O2443      C2447   1.266       .  A
O2444      C2447   1.277       .  A
O2445      H2455   0.991       .  S
O2446      H2459   0.989       .  S
C2447      C2959   1.472       .  S
C2470      C2472   1.562       .  S
C2470      C2474   1.545       .  S
C2470      C2473   1.558       .  S
C2470      C2889   1.548       .  S
C2471      C2475   1.537       .  S
C2471      C2477   1.546       .  S
C2471      C2476   1.536       .  S
C2471      C2872   1.530       .  S
C2472      C2480   1.394       .  A
C2473      C2484   1.400       .  A
C2474      C2488   1.385       .  A
C2475      C2478   1.386       .  A
C2476      C2482   1.383       .  A
C2477      C2485   1.382       .  A
C2478      N2479   1.346       .  A
C2478      H2491   1.077       .  S
N2479      C2847   1.452       .  S
C2480      H2481   1.081       .  S
C2482      N2483   1.362   1_565  A
C2482      H2492   1.081       .  S
C2484      H2490   1.081       .  S
C2485      N2486   1.351       .  A
C2485      H2487   1.076       .  S
C2488      H2489   1.078       .  S
C2493      C2495   1.528       .  S
C2493      C2497   1.543       .  S
C2493      C2496   1.563       .  S
C2493      C2816   1.545       .  S
C2494      C2498   1.530       .  S
C2494      C2500   1.545       .  S
C2494      C2499   1.572       .  S
C2494      C2830   1.556       .  S
C2495      C2503   1.373       .  A
C2495      C2498   1.385       .  A
C2496      C2507   1.397       .  A
C2496      C2499   1.413       .  A
C2497      C2511   1.384       .  A
C2497      C2500   1.396       .  A
C2498      C2501   1.384       .  A
C2499      C2505   1.393       .  A
C2500      C2508   1.378       .  A
C2501      N2502   1.355       .  A
C2501      H2514   1.081       .  S
N2502      C2503   1.350       .  A
N2502      N2598   1.410       .  S
C2503      H2504   1.078       .  S
C2505      N2506   1.367       .  A
C2505      H2515   1.080       .  S
N2506      C2507   1.363       .  A
N2506      N2707   1.430       .  S
C2507      H2513   1.081       .  S
C2508      N2509   1.362       .  A
C2508      H2510   1.080       .  S
N2509      C2511   1.358       .  A
C2511      H2512   1.081       .  S
Zr2516     O2517   2.436       .  S
Zr2516     O2518   2.510       .  S
Zr2516     O2519   2.475       .  S
Zr2516     O2522   2.482       .  S
Zr2516     O2524   2.383       .  S
Zr2516     O2525   2.375       .  S
Zr2516     O2527   2.439       .  S
O2517      H2573   0.990       .  S
O2517      H2581   0.990       .  S
O2518      C2538   1.300       .  A
O2519      C2540   1.295       .  A
O2520     Zr2530   2.400       .  S
O2520      C2539   1.273       .  A
O2521     Zr2529   2.430       .  S
O2522      C2539   1.292       .  A
O2523     Zr2531   2.376       .  S
O2523      C2538   1.272       .  A
O2524     Zr2531   2.358       .  S
O2525     Zr2530   2.396       .  S
O2525     Zr2531   2.380       .  S
O2525      H2560   0.965       .  S
O2526     Zr2529   2.404       .  S
O2526     Zr2546   2.418       .  S
O2526      H2563   0.966       .  S
O2527     Zr2530   2.390       .  S
Zr2528     O2553   2.428       .  S
Zr2528     O2547   2.363       .  S
Zr2528     O2555   2.441       .  S
Zr2528     O2543   2.414       .  S
Zr2528     O2535   2.396       .  S
Zr2528     O2536   2.376       .  S
Zr2528     O2537   2.387       .  S
Zr2529     O2548   2.437       .  S
Zr2529     O2541   2.436       .  S
Zr2529     O2542   2.461       .  S
Zr2529     O2535   2.391       .  S
Zr2529     O2536   2.388       .  S
Zr2530     O2532   2.436       .  S
Zr2530     O2554   2.439       .  S
Zr2530     O2556   2.396       .  S
Zr2530     O2534   2.411       .  S
Zr2531     O2557   2.433       .  S
Zr2531     O2558   2.433       .  S
Zr2531     O2533   2.449       .  S
Zr2531     O2534   2.390       .  S
O2532      H2569   0.990       .  S
O2533      H2564   0.990       .  S
O2533      H2578   0.991       .  S
O2535      H2561   0.965       .  S
O2536     Zr2546   2.362       .  S
O2537     Zr2546   2.350       .  S
O2537      H2562   0.967       .  S
C2538      C2788   1.505       .  S
C2539      C2819   1.479       .  S
C2540      C2931   1.497       .  S
O2541      H2577   0.990       .  S
O2542      C2544   1.291       .  A
O2543      C2544   1.280       .  A
C2544      C2805   1.495       .  S
O2545     Zr2546   2.440       .  S
O2545      H2574   0.990       .  S
Zr2546     O2549   2.438       .  S
Zr2546     O2550   2.438       .  S
Zr2546     O2551   2.532       .  S
O2547      C2552   1.272       .  A
O2548      H2565   0.991       .  S
O2548      H2580   0.990       .  S
O2549      H2566   0.990       .  S
O2550      H2570   0.990       .  S
O2550      H2579   0.990       .  S
O2551      C2552   1.302       .  A
C2552      C2833   1.518       .  S
O2553      H2572   0.990       .  S
O2553      H2576   0.990       .  S
O2554      H2568   0.990       .  S
O2554      H2575   0.989       .  S
O2555      C2559   1.273       .  A
O2557      H2567   0.990       .  S
C2559      C2777   1.437       .  S
C2582      C2584   1.558       .  S
C2582      C2586   1.529       .  S
C2582      C2585   1.575       .  S
C2582      C2791   1.551       .  S
C2583      C2587   1.545       .  S
C2583      C2589   1.540       .  S
C2583      C2588   1.551       .  S
C2583      C2802   1.541       .  S
C2584      C2592   1.390       .  A
C2584      C2587   1.403       .  A
C2585      C2596   1.410       .  A
C2585      C2588   1.407       .  A
C2586      C2600   1.371       .  A
C2586      C2589   1.380       .  A
C2587      C2590   1.389       .  A
C2588      C2594   1.385       .  A
C2589      C2597   1.384       .  A
C2590      N2591   1.355       .  A
C2590      H2603   1.078       .  S
N2591      C2592   1.362       .  A
N2591      C2945   1.453       .  S
C2592      H2593   1.081       .  S
C2594      N2595   1.361       .  A
C2594      H2604   1.081       .  S
N2595      C2596   1.369       .  A
N2595      N2618   1.433       .  S
C2596      H2602   1.079       .  S
C2597      N2598   1.354       .  A
C2597      H2599   1.079       .  S
N2598      C2600   1.354       .  A
C2600      H2601   1.080       .  S
C2605      C2607   1.533       .  S
C2605      C2609   1.556       .  S
C2605      C2608   1.573       .  S
C2605      C2746   1.547       .  S
C2606      C2610   1.546       .  S
C2606      C2612   1.538       .  S
C2606      C2611   1.551       .  S
C2606      C2760   1.542       .  S
C2607      C2615   1.383       .  A
C2607      C2610   1.377       .  A
C2608      C2619   1.407       .  A
C2608      C2611   1.404       .  A
C2609      C2623   1.386       .  A
C2609      C2612   1.399       .  A
C2610      C2613   1.384       .  A
C2611      C2617   1.383       .  A
C2612      C2620   1.378       .  A
C2613      N2614   1.354       .  A
C2613      H2626   1.077       .  S
N2614      C2615   1.356       .  A
N2614      N2710   1.414       .  S
C2615      H2616   1.081       .  S
C2617      N2618   1.363       .  A
C2617      H2627   1.081       .  S
N2618      C2619   1.371       .  A
C2619      H2625   1.080       .  S
C2620      N2621   1.354       .  A
C2620      H2622   1.075       .  S
N2621      C2623   1.361       .  A
C2623      H2624   1.081       .  S
Zr2628     O2629   2.438       .  S
Zr2628     O2630   2.483       .  S
Zr2628     O2631   2.495       .  S
Zr2628     O2634   2.493       .  S
Zr2628     O2636   2.391       .  S
Zr2628     O2637   2.372       .  S
Zr2628     O2639   2.428       .  S
O2629      H2685   0.991       .  S
O2629      H2693   0.990       .  S
O2630      C2650   1.294       .  A
O2631      C2652   1.296       .  A
O2632     Zr2642   2.390       .  S
O2632      C2651   1.276       .  A
O2633     Zr2641   2.390       .  S
O2634      C2651   1.297       .  A
O2635     Zr2643   2.397       .  S
O2635      C2650   1.275       .  A
O2636     Zr2643   2.372       .  S
O2637     Zr2642   2.389       .  S
O2637     Zr2643   2.370       .  S
O2637      H2672   0.965       .  S
O2638     Zr2641   2.411       .  S
O2638     Zr2658   2.411       .  S
O2638      H2675   0.967       .  S
O2639     Zr2642   2.397       .  S
Zr2640     O2665   2.467       .  S
Zr2640     O2659   2.338       .  S
Zr2640     O2667   2.405       .  S
Zr2640     O2655   2.398       .  S
Zr2640     O2646   2.398       .  S
Zr2640     O2647   2.401       .  S
Zr2640     O2648   2.372       .  S
Zr2640     O2649   2.391       .  S
Zr2641     O2660   2.438       .  S
Zr2641     O2653   2.435       .  S
Zr2641     O2654   2.438       .  S
Zr2641     O2647   2.388       .  S
Zr2641     O2648   2.390       .  S
Zr2642     O2644   2.434       .  S
Zr2642     O2666   2.442       .  S
Zr2642     O2668   2.428   1_565  S
Zr2643     O2669   2.434       .  S
Zr2643     O2670   2.430   1_565  S
Zr2643     O2645   2.442       .  S
O2644      H2681   0.990       .  S
O2645      H2676   0.990       .  S
O2645      H2690   0.990       .  S
O2647      H2673   0.966       .  S
O2648     Zr2658   2.383       .  S
O2649     Zr2658   2.358       .  S
O2649      H2674   0.965       .  S
C2650      C2718   1.478       .  S
C2651      C2749   1.489       .  S
C2652      C2844   1.484       .  S
O2653      H2689   0.989       .  S
O2654      C2656   1.284       .  A
O2655      C2656   1.274       .  A
C2656      C2732   1.462       .  S
O2657     Zr2658   2.438       .  S
O2657      H2686   0.991       .  S
Zr2658     O2661   2.438       .  S
Zr2658     O2662   2.439       .  S
Zr2658     O2663   2.489       .  S
O2659      C2664   1.261       .  A
O2660      H2677   0.991       .  S
O2660      H2692   0.990       .  S
O2661      H2678   0.990       .  S
O2662      H2682   0.990       .  S
O2662      H2691   0.990       .  S
O2663      C2664   1.289       .  A
C2664      C2763   1.493       .  S
O2665      H2684   0.991       .  S
O2665      H2688   0.988       .  S
O2666      H2680   0.990       .  S
O2666      H2687   0.988       .  S
O2667      C2671   1.264       .  A
O2669      H2679   0.990       .  S
C2671      C2774   1.465       .  S
C2694      C2696   1.574       .  S
C2694      C2698   1.537       .  S
C2694      C2697   1.581       .  S
C2694      C2721   1.545       .  S
C2695      C2699   1.530       .  S
C2695      C2701   1.537       .  S
C2695      C2700   1.541       .  S
C2695      C2735   1.534       .  S
C2696      C2704   1.410       .  A
C2696      C2699   1.400       .  A
C2697      C2708   1.404       .  A
C2697      C2700   1.404       .  A
C2698      C2712   1.386       .  A
C2698      C2701   1.376       .  A
C2699      C2702   1.374       .  A
C2700      C2706   1.384       .  A
C2701      C2709   1.377       .  A
C2702      N2703   1.344       .  A
C2702      H2715   1.082       .  S
N2703      C2704   1.366       .  A
N2703      C2858   1.451       .  S
C2704      H2705   1.079       .  S
C2706      N2707   1.359       .  A
C2706      H2716   1.077       .  S
N2707      C2708   1.371       .  A
C2708      H2714   1.081       .  S
C2709      N2710   1.356       .  A
C2709      H2711   1.080       .  S
N2710      C2712   1.356       .  A
C2712      H2713   1.080       .  S
C2717      C2718   1.401       .  A
C2717      C2722   1.403       .  A
C2717      H2724   1.085       .  S
C2718      C2719   1.414       .  A
C2719      C2720   1.410       .  A
C2719      N2726   1.438       .  S
C2720      C2721   1.410       .  A
C2720      H2725   1.075       .  S
C2721      C2722   1.420       .  A
C2722      N2723   1.434       .  S
N2723      H2727   1.045       .  S
N2723      H2728   1.046       .  S
N2726      H2729   1.044       .  S
N2726      H2730   1.046       .  S
C2731      C2732   1.405       .  A
C2731      C2736   1.403       .  A
C2731      H2738   1.084       .  S
C2732      C2733   1.401       .  A
C2733      C2734   1.386       .  A
C2733      N2740   1.433       .  S
C2734      C2735   1.418       .  A
C2734      H2739   1.084       .  S
C2735      C2736   1.418       .  A
C2736      N2737   1.434       .  S
N2737      H2741   1.044       .  S
N2737      H2742   1.042       .  S
N2740      H2743   1.045       .  S
N2740      H2744   1.046       .  S
C2745      C2746   1.425       .  A
C2745      C2750   1.409       .  A
C2745      H2752   1.080       .  S
C2746      C2747   1.415       .  A
C2747      C2748   1.407       .  A
C2747      N2754   1.428       .  S
C2748      C2749   1.407       .  A
C2748      H2753   1.084       .  S
C2749      C2750   1.409       .  A
C2750      N2751   1.438       .  S
N2751      H2755   1.046       .  S
N2751      H2756   1.043       .  S
N2754      H2757   1.046       .  S
N2754      H2758   1.046       .  S
C2759      C2760   1.392       .  A
C2759      C2764   1.391       .  A
C2759      H2766   1.084       .  S
C2760      C2761   1.422       .  A
C2761      C2762   1.418       .  A
C2761      N2768   1.436       .  S
C2762      C2763   1.406       .  A
C2762      H2767   1.083       .  S
C2763      C2764   1.426       .  A
C2764      N2765   1.441       .  S
N2765      H2769   1.046       .  S
N2765      H2770   1.046       .  S
N2768      H2771   1.045       .  S
N2768      H2772   1.046       .  S
C2773      C2774   1.410       .  A
C2773      C2778   1.387       .  A
C2773      H2780   1.065       .  S
C2774      C2775   1.400       .  A
C2775      C2776   1.387       .  A
C2775      N2782   1.430       .  S
C2776      C2777   1.401       .  A
C2776      H2781   1.079       .  S
C2777      C2778   1.392       .  A
C2778      N2779   1.438       .  S
N2779      H2783   1.046       .  S
N2779      H2784   1.045       .  S
N2782      H2785   1.040       .  S
N2782      H2786   1.046       .  S
C2787      C2788   1.397       .  A
C2787      C2792   1.410       .  A
C2787      H2794   1.083       .  S
C2788      C2789   1.427       .  A
C2789      C2790   1.408       .  A
C2789      N2796   1.433       .  S
C2790      C2791   1.399       .  A
C2790      H2795   1.078       .  S
C2791      C2792   1.430       .  A
C2792      N2793   1.432       .  S
N2793      H2797   1.044       .  S
N2793      H2798   1.045       .  S
N2796      H2799   1.046       .  S
N2796      H2800   1.046       .  S
C2801      C2802   1.404       .  A
C2801      C2806   1.394       .  A
C2801      H2808   1.084       .  S
C2802      C2803   1.417       .  A
C2803      C2804   1.408       .  A
C2803      N2810   1.437       .  S
C2804      C2805   1.409       .  A
C2804      H2809   1.084       .  S
C2805      C2806   1.424       .  A
C2806      N2807   1.432       .  S
N2807      H2811   1.044       .  S
N2807      H2812   1.045       .  S
N2810      H2813   1.044       .  S
N2810      H2814   1.044       .  S
C2815      C2816   1.419       .  A
C2815      C2820   1.406       .  A
C2815      H2822   1.078       .  S
C2816      C2817   1.421       .  A
C2817      C2818   1.407       .  A
C2817      N2824   1.432       .  S
C2818      C2819   1.403       .  A
C2818      H2823   1.084       .  S
C2819      C2820   1.407       .  A
C2820      N2821   1.438       .  S
N2821      H2825   1.046       .  S
N2821      H2826   1.044       .  S
N2824      H2827   1.046       .  S
N2824      H2828   1.046       .  S
C2829      C2830   1.426       .  A
C2829      C2834   1.423       .  A
C2829      H2836   1.081       .  S
C2830      C2831   1.412       .  A
C2831      C2832   1.404       .  A
C2831      N2838   1.429       .  S
C2832      C2833   1.417       .  A
C2832      H2837   1.083       .  S
C2833      C2834   1.409       .  A
C2834      N2835   1.436       .  S
N2835      H2839   1.046       .  S
N2835      H2840   1.046       .  S
N2838      H2841   1.046       .  S
N2838      H2842   1.046       .  S
C2843      C2848   1.398       .  A
C2843      H2850   1.085       .  S
C2844      C2845   1.409       .  A
C2845      C2846   1.418       .  A
C2845      N2852   1.437       .  S
C2846      C2847   1.416       .  A
C2846      H2851   1.082       .  S
C2848      N2849   1.432       .  S
N2849      H2853   1.046       .  S
N2849      H2854   1.045       .  S
N2852      H2855   1.046       .  S
N2852      H2856   1.046       .  S
C2857      C2858   1.411       .  A
C2857      C2862   1.411       .  A
C2857      H2864   1.084       .  S
C2858      C2859   1.410       .  A
C2859      C2860   1.404       .  A
C2859      N2866   1.431       .  S
C2860      C2861   1.410       .  A
C2860      H2865   1.084       .  S
C2861      C2862   1.419       .  A
C2862      N2863   1.438       .  S
N2863      H2867   1.046       .  S
N2863      H2868   1.042       .  S
N2866      H2869   1.046       .  S
N2866      H2870   1.044       .  S
C2871      C2872   1.397       .  A
C2871      C2876   1.385       .  A
C2871      H2878   1.085       .  S
C2872      C2873   1.421       .  A
C2873      C2874   1.408       .  A
C2873      N2880   1.437       .  S
C2874      C2875   1.403       .  A
C2874      H2879   1.084       .  S
C2875      C2876   1.412       .  A
C2876      N2877   1.433       .  S
N2877      H2881   1.036       .  S
N2877      H2882   1.046       .  S
N2880      H2883   1.044       .  S
N2880      H2884   1.044       .  S
C2885      C2886   1.407       .  A
C2885      C2890   1.421       .  A
C2885      H2892   1.083       .  S
C2886      C2887   1.410       .  A
C2887      C2888   1.402       .  A
C2887      N2894   1.429       .  S
C2888      C2889   1.403       .  A
C2888      H2893   1.084       .  S
C2889      C2890   1.420       .  A
C2890      N2891   1.436       .  S
N2891      H2895   1.045       .  S
N2891      H2896   1.046       .  S
N2894      H2897   1.045       .  S
N2894      H2898   1.045       .  S
C2899      C2900   1.403       .  A
C2899      C2904   1.412       .  A
C2899      H2906   1.083       .  S
C2900      C2901   1.412       .  A
C2901      C2902   1.401       .  A
C2901      N2908   1.438       .  S
C2902      C2903   1.406       .  A
C2902      H2907   1.078       .  S
C2903      C2904   1.423       .  A
C2904      N2905   1.438       .  S
N2905      H2909   1.045       .  S
N2905      H2910   1.045       .  S
N2908      H2911   1.045   1_455  S
N2908      H2912   1.046   1_455  S
C2913      C2914   1.400       .  A
C2913      C2918   1.393       .  A
C2913      H2920   1.076       .  S
C2914      C2915   1.423       .  A
C2915      C2916   1.415       .  A
C2915      N2922   1.431       .  S
C2916      C2917   1.404       .  A
C2916      H2921   1.083       .  S
C2917      C2918   1.417       .  A
C2918      N2919   1.432       .  S
N2919      H2923   1.046       .  S
N2919      H2924   1.046   1_455  S
N2922      H2925   1.045       .  S
N2922      H2926   1.046       .  S
C2927      C2932   1.412       .  A
C2927      H2934   1.083       .  S
C2928      C2929   1.411   1_565  A
C2929      C2930   1.398   1_545  A
C2929      N2936   1.432       .  S
C2930      C2931   1.408       .  A
C2930      H2935   1.084   1_565  S
C2932      N2933   1.437       .  S
N2933      H2937   1.046       .  S
N2933      H2938   1.045       .  S
N2936      H2939   1.044       .  S
N2936      H2940   1.046       .  S
C2941      C2942   1.410       .  A
C2941      C2946   1.401       .  A
C2941      H2948   1.084       .  S
C2942      C2943   1.418       .  A
C2943      C2944   1.419       .  A
C2943      N2950   1.436       .  S
C2944      C2945   1.409       .  A
C2944      H2949   1.083       .  S
C2945      C2946   1.412       .  A
C2946      N2947   1.429       .  S
N2947      H2951   1.041       .  S
N2947      H2952   1.046       .  S
N2950      H2953   1.045       .  S
N2950      H2954   1.046       .  S
C2955      C2956   1.406       .  A
C2955      C2960   1.411       .  A
C2955      H2962   1.083       .  S
C2956      C2957   1.394       .  A
C2957      C2958   1.399       .  A
C2957      N2964   1.430       .  S
C2958      C2959   1.414       .  A
C2958      H2963   1.071       .  S
C2959      C2960   1.414       .  A
C2960      N2961   1.436       .  S
N2961      H2965   1.045       .  S
N2961      H2966   1.045       .  S
N2964      H2967   1.046       .  S
N2964      H2968   1.045       .  S
C2969      C2970   1.404       .  A
C2969      C2974   1.402       .  A
C2969      H2976   1.085       .  S
C2970      C2971   1.407       .  A
C2971      C2972   1.403       .  A
C2971      N2978   1.433       .  S
C2972      C2973   1.421       .  A
C2972      H2977   1.071       .  S
C2973      C2974   1.436       .  A
C2974      N2975   1.435       .  S
N2975      H2979   1.044       .  S
N2975      H2980   1.040       .  S
N2978      H2981   1.046       .  S
N2978      H2982   1.045       .  S
C2983      C2984   1.403       .  A
C2983      C2988   1.412       .  A
C2983      H2990   1.084       .  S
C2984      C2985   1.402       .  A
C2985      C2986   1.396       .  A
C2985      N2992   1.439       .  S
C2986      C2987   1.414       .  A
C2986      H2991   1.084       .  S
C2987      C2988   1.416       .  A
C2988      N2989   1.429       .  S
N2989      H2993   1.045       .  S
N2989      H2994   1.046       .  S
N2992      H2995   1.045       .  S
N2992      H2996   1.046       .  S
C2997      C2998   1.424       .  A
C2997      C3002   1.403       .  A
C2997      H3004   1.084       .  S
C2998      C2999   1.402       .  A
C2999      C3000   1.411       .  A
C2999      N3006   1.433   1_655  S
C3000      C3001   1.419       .  A
C3000      H3005   1.080       .  S
C3001      C3002   1.402       .  A
C3002      N3003   1.438       .  S
N3003      H3007   1.046       .  S
N3003      H3008   1.045       .  S
N3006      H3009   1.046       .  S
N3006      H3010   1.046       .  S
C3011      C3012   1.415       .  A
C3011      C3016   1.415       .  A
C3011      H3018   1.084       .  S
C3012      C3013   1.402       .  A
C3013      C3014   1.396       .  A
C3013      N3020   1.432       .  S
C3014      C3015   1.421       .  A
C3014      H3019   1.084       .  S
C3015      C3016   1.409       .  A
C3016      N3017   1.432   1_655  S
N3017      H3021   1.046       .  S
N3017      H3022   1.046       .  S
N3020      H3023   1.045       .  S
N3020      H3024   1.046       .  S
