geometry optimzed in LAMMPS
_audit_creation_date              2020-11-30 
_audit_creation_method            'lammps2cif' 
_symmetry_space_group_name_H-M    'P1' 
_symmetry_Int_Tables_number       1 
_symmetry_cell_setting            triclinic 
loop_ 
_symmetry_equiv_pos_as_xyz 
  x,y,z 
_cell_length_a                    39.24983499 
_cell_length_b                    39.24930502143627 
_cell_length_c                    39.27422732044785 
_cell_angle_alpha                 89.99982129849109 
_cell_angle_beta                  90.0002687958006 
_cell_angle_gamma                 119.99880732769704 
loop_ 
_atom_site_label 
_atom_site_type_symbol 
_atom_site_fract_x 
_atom_site_fract_y 
_atom_site_fract_z 
_atom_site_charge 
O1          O  0.30137459  0.26897800  0.24904065    -0.72200
O2          O  0.30133340  0.03226237  0.25108494    -0.72400
O3          O  0.30137853  0.31825529  0.20171703    -0.72300
O4          O  0.30137052  0.31586928  0.29838418    -0.72300
O5          O  0.03192529  0.01743869  0.29840744    -0.72300
O6          O  0.03195556  0.01505570  0.20173599    -0.72300
O7          O  0.03195283  0.06433925  0.24905974    -0.72200
O8          O  0.03197023  0.30104246  0.25104438    -0.72400
V9          V  0.30260118  0.31785793  0.25005090     1.35200
V10         V  0.03071508  0.01545319  0.25007425     1.35200
C11         C  0.00000873  0.26861430  0.25003658     0.77000
C12         C  0.99997752  0.06469319  0.25006840     0.77100
C13         C  0.33335065  0.33332564  0.18531010     0.77000
C14         C  0.33333037  0.99998732  0.31474270     0.76900
O15         O  0.03197067  0.23101129  0.24902629    -0.72200
O16         O  0.03197172  0.13437488  0.25106716    -0.72400
O17         O  0.03198672  0.18172566  0.20171305    -0.72300
O18         O  0.03194063  0.18411611  0.29838081    -0.72300
O19         O  0.30138200  0.14922763  0.29839261    -0.72300
O20         O  0.30131968  0.15156741  0.20172803    -0.72300
O21         O  0.30134036  0.10230143  0.24906655    -0.72200
O22         O  0.30135430  0.19894769  0.25106553    -0.72400
V23         V  0.03073670  0.18212509  0.25004741     1.35200
V24         V  0.30258054  0.15119282  0.25006345     1.35200
C25         C  0.99999279  0.23136180  0.25002530     0.77000
C26         C  0.00000520  0.10195140  0.25006484     0.77100
C27         C  0.00001874  0.16664536  0.18529938     0.77000
C28         C  0.99998287  0.16668094  0.31472968     0.76900
O29         O  0.13470487  0.26895595  0.24906414    -0.72200
O30         O  0.13473703  0.03227475  0.25109631    -0.72400
O31         O  0.13470264  0.31823169  0.20172569    -0.72300
O32         O  0.13475423  0.31588868  0.29840228    -0.72300
O33         O  0.19869102  0.01745791  0.29838605    -0.72300
O34         O  0.19865700  0.01507089  0.20171353    -0.72300
O35         O  0.19867783  0.06435092  0.24904839    -0.72200
O36         O  0.19864717  0.30101971  0.25105593    -0.72400
V37         V  0.13595326  0.31785250  0.25006596     1.35200
V38         V  0.19744685  0.01546723  0.25005007     1.35200
C39         C  0.16667853  0.26859656  0.25006047     0.77000
C40         C  0.16670019  0.06469900  0.25007881     0.77100
C41         C  0.16667078  0.33330543  0.18530968     0.77000
C42         C  0.16671215  0.33333550  0.31475225     0.76900
O43         O  0.19865001  0.18170858  0.20172033    -0.72200
O44         O  0.19863885  0.18410675  0.29839600    -0.72400
O45         O  0.19867435  0.13437629  0.25107473    -0.72300
O46         O  0.19863504  0.23099060  0.24904375    -0.72300
O47         O  0.13469358  0.19890783  0.25105570    -0.72300
O48         O  0.13473177  0.10228884  0.24907168    -0.72300
O49         O  0.13473478  0.14920173  0.29839751    -0.72200
O50         O  0.13470889  0.15153675  0.20172089    -0.72400
V51         V  0.19741761  0.18211340  0.25005939     1.35200
V52         V  0.13594850  0.15116533  0.25006198     1.35200
C53         C  0.16667886  0.16661721  0.18530752     0.77000
C54         C  0.16668680  0.16666140  0.31475336     0.77100
C55         C  0.16671360  0.10194788  0.25007919     0.77000
C56         C  0.16665563  0.23133707  0.25005449     0.76900
O57         O  0.01510999  0.03197485  0.46494064    -0.72200
O58         O  0.01741559  0.03194430  0.36827032    -0.72400
O59         O  0.30107182  0.03198985  0.41561831    -0.72300
O60         O  0.06435158  0.03195862  0.41757501    -0.72300
O61         O  0.03229243  0.30136910  0.41559869    -0.72300
O62         O  0.26900064  0.30138230  0.41763024    -0.72300
O63         O  0.31586830  0.30138304  0.36826291    -0.72200
O64         O  0.31830321  0.30138577  0.46493308    -0.72400
V65         V  0.01546815  0.03073144  0.41660313     1.35200
V66         V  0.31788106  0.30261033  0.41659648     1.35200
C67         C  0.00002717  0.00000562  0.48135505     0.77000
C68         C  0.99996912  0.99999006  0.35191807     0.77100
C69         C  0.26864582  0.00002624  0.41663922     0.77000
C70         C  0.06470073  0.99998005  0.41656157     0.76900
O71         O  0.03226794  0.13470146  0.41556011    -0.72200
O72         O  0.26896470  0.13468342  0.41757548    -0.72400
O73         O  0.31588595  0.13470625  0.36824215    -0.72300
O74         O  0.31822685  0.13466198  0.46491389    -0.72300
O75         O  0.01503092  0.19860441  0.46493142    -0.72300
O76         O  0.01740879  0.19862830  0.36825270    -0.72300
O77         O  0.30104478  0.19862645  0.41557727    -0.72200
O78         O  0.06432620  0.19864232  0.41758989    -0.72400
V79         V  0.31784918  0.13590975  0.41657494     1.35200
V80         V  0.01542652  0.19739086  0.41658950     1.35200
C81         C  0.06469078  0.16667080  0.41657361     0.77000
C82         C  0.26861721  0.16666391  0.41658069     0.77100
C83         C  0.99997120  0.16667881  0.35188989     0.77000
C84         C  0.33330707  0.16663182  0.48132911     0.76900
O85         O  0.10233393  0.30138022  0.41760156    -0.72200
O86         O  0.19896994  0.30137078  0.41561381    -0.72400
O87         O  0.15159604  0.30136648  0.46494308    -0.72300
O88         O  0.14925790  0.30139384  0.36827224    -0.72300
O89         O  0.18416582  0.03196605  0.36827186    -0.72300
O90         O  0.18168321  0.03195283  0.46494304    -0.72300
O91         O  0.23102432  0.03197618  0.41765886    -0.72200
O92         O  0.13438194  0.03196787  0.41555911    -0.72400
V93         V  0.15122122  0.30260966  0.41660645     1.35200
V94         V  0.18213233  0.03073446  0.41660717     1.35200
C95         C  0.10195767  0.00000076  0.41654660     0.77000
C96         C  0.23138310  0.00000117  0.41665354     0.77100
C97         C  0.16658886  0.99997662  0.48134801     0.77000
C98         C  0.16671604  0.33334433  0.35191522     0.76900
O99         O  0.10230737  0.13471803  0.41759003    -0.72200
O100        O  0.19893391  0.13468872  0.41562075    -0.72400
O101        O  0.15156290  0.13470180  0.46494526    -0.72300
O102        O  0.14923553  0.13472031  0.36827395    -0.72300
O103        O  0.18411275  0.19862699  0.36827049    -0.72300
O104        O  0.18175187  0.19864462  0.46494772    -0.72300
O105        O  0.23101761  0.19863213  0.41760523    -0.72200
O106        O  0.13438646  0.19866077  0.41560501    -0.72400
V107        V  0.15119130  0.13594027  0.41660784     1.35200
V108        V  0.18213482  0.19741021  0.41660737     1.35200
C109        C  0.10195627  0.16669660  0.41658654     0.77000
C110        C  0.23136312  0.16665090  0.41660168     0.77100
C111        C  0.16666169  0.16667190  0.48135869     0.77000
C112        C  0.16668127  0.16667117  0.35191583     0.76900
O113        O  0.03194051  0.01449877  0.03494219    -0.72200
O114        O  0.03195650  0.01687532  0.13161170    -0.72400
O115        O  0.03195946  0.30093588  0.08427939    -0.72300
O116        O  0.03196433  0.06424336  0.08227207    -0.72300
O117        O  0.30135268  0.03236664  0.08423593    -0.72300
O118        O  0.30133545  0.26906465  0.08226719    -0.72300
O119        O  0.30136853  0.31643538  0.13161058    -0.72200
O120        O  0.30135774  0.31881618  0.03493697    -0.72400
V121        V  0.03071978  0.01525382  0.08327412     1.35200
V122        V  0.30258486  0.31805592  0.08327366     1.35200
C123        C  0.33331085  0.33332854  0.01857915     0.77000
C124        C  0.99997094  0.33329972  0.14800563     0.77100
C125        C  0.99998449  0.26860627  0.08325702     0.77000
C126        C  0.00000053  0.06470665  0.08326847     0.76900
O127        O  0.03193958  0.18116260  0.03493480    -0.72200
O128        O  0.03198444  0.18354626  0.13159592    -0.72400
O129        O  0.03196101  0.13426776  0.08426269    -0.72300
O130        O  0.03197451  0.23091187  0.08226383    -0.72300
O131        O  0.30132997  0.19902873  0.08426013    -0.72300
O132        O  0.30132834  0.10238510  0.08226272    -0.72300
O133        O  0.30131093  0.14974638  0.13160058    -0.72200
O134        O  0.30135436  0.15212764  0.03493197    -0.72400
V135        V  0.03073347  0.18192280  0.08326345     1.35200
V136        V  0.30256149  0.15137166  0.08326368     1.35200
C137        C  0.33330975  0.16663138  0.01858254     0.77000
C138        C  0.33327897  0.16663753  0.14801460     0.77100
C139        C  0.99998210  0.10194168  0.08326135     0.77000
C140        C  0.00001000  0.23137342  0.08326745     0.76900
O141        O  0.13476566  0.31883024  0.03492715    -0.72200
O142        O  0.13471231  0.31641314  0.13159294    -0.72400
O143        O  0.13471398  0.03236484  0.08424169    -0.72300
O144        O  0.13473354  0.26906862  0.08224523    -0.72300
O145        O  0.19867345  0.30093570  0.08429301    -0.72300
O146        O  0.19865694  0.06423508  0.08224471    -0.72300
O147        O  0.19864722  0.01689332  0.13160465    -0.72200
O148        O  0.19865147  0.01448414  0.03493545    -0.72400
V149        V  0.13596883  0.31805648  0.08325664     1.35200
V150        V  0.19742284  0.01525392  0.08326888     1.35200
C151        C  0.16671952  0.33332520  0.01857742     0.77000
C152        C  0.16667711  0.33331319  0.14801184     0.77100
C153        C  0.16669015  0.06469229  0.08323272     0.77000
C154        C  0.16669849  0.26860682  0.08326686     0.76900
O155        O  0.19865276  0.18115189  0.03492377    -0.72200
O156        O  0.19865499  0.18351751  0.13159685    -0.72400
O157        O  0.19865012  0.13424874  0.08425396    -0.72300
O158        O  0.19867960  0.23090029  0.08225869    -0.72300
O159        O  0.13473839  0.19904155  0.08427744    -0.72300
O160        O  0.13470883  0.10239067  0.08221998    -0.72300
O161        O  0.13471468  0.14972641  0.13158951    -0.72200
O162        O  0.13474891  0.15216973  0.03491935    -0.72400
V163        V  0.19742824  0.18190530  0.08325748     1.35200
V164        V  0.13595919  0.15138199  0.08325091     1.35200
C165        C  0.16670219  0.16666257  0.01856714     0.77000
C166        C  0.16668277  0.16661719  0.14800614     0.77100
C167        C  0.16667115  0.10192538  0.08322939     0.77000
C168        C  0.16671721  0.23136753  0.08326649     0.76900
O169        O  0.01744778  0.31883678  0.96506860    -0.72200
O170        O  0.01509910  0.31644807  0.86840192    -0.72400
O171        O  0.06434807  0.03236966  0.91573402    -0.72300
O172        O  0.30108936  0.26906315  0.91775490    -0.72300
O173        O  0.26900010  0.30091459  0.91569288    -0.72300
O174        O  0.03227979  0.06424429  0.91774990    -0.72300
O175        O  0.31818761  0.01685498  0.86839219    -0.72200
O176        O  0.31591589  0.01450205  0.96506426    -0.72400
V177        V  0.01547633  0.31807568  0.91673816     1.35200
V178        V  0.31784767  0.01524820  0.91673048     1.35200
C179        C  0.33332015  0.33332682  0.98141895     0.77000
C180        C  0.33337315  0.33330895  0.85198354     0.77100
C181        C  0.06470432  0.06470091  0.91674597     0.77000
C182        C  0.26865716  0.26859097  0.91672312     0.76900
O183        O  0.01743062  0.15214727  0.96508376    -0.72200
O184        O  0.01506488  0.14974765  0.86841820    -0.72400
O185        O  0.06434448  0.19903166  0.91574995    -0.72300
O186        O  0.30105459  0.10239889  0.91772027    -0.72300
O187        O  0.26898124  0.13426928  0.91571174    -0.72300
O188        O  0.03227611  0.23090697  0.91775074    -0.72300
O189        O  0.31827373  0.18357167  0.86840311    -0.72200
O190        O  0.31586605  0.18113560  0.96507080    -0.72400
V191        V  0.01545629  0.15138198  0.91675355     1.35200
V192        V  0.31786400  0.18192024  0.91673961     1.35200
C193        C  0.99998296  0.16665621  0.98143317     0.77000
C194        C  0.33335309  0.16668097  0.85198935     0.77100
C195        C  0.06470065  0.23136301  0.91675644     0.77000
C196        C  0.26862995  0.10194075  0.91671370     0.76900
O197        O  0.18415521  0.31882082  0.96506037    -0.72200
O198        O  0.18172106  0.31639570  0.86839766    -0.72400
O199        O  0.23102069  0.03237902  0.91569824    -0.72300
O200        O  0.13438800  0.26905358  0.91775818    -0.72300
O201        O  0.10231725  0.30092605  0.91574631    -0.72300
O202        O  0.19895064  0.06425201  0.91772185    -0.72300
O203        O  0.15155838  0.01688018  0.86839790    -0.72200
O204        O  0.14925672  0.01451516  0.96507383    -0.72400
V205        V  0.18214031  0.31804111  0.91673065     1.35200
V206        V  0.15120214  0.01526756  0.91673843     1.35200
C207        C  0.16671321  0.33332707  0.98142113     0.77000
C208        C  0.16664817  0.33329548  0.85199135     0.77100
C209        C  0.23137415  0.06470834  0.91671049     0.77000
C210        C  0.10196244  0.26859573  0.91675772     0.76900
O211        O  0.14924773  0.18116140  0.96505704    -0.72200
O212        O  0.15159708  0.18353501  0.86839238    -0.72400
O213        O  0.10232543  0.13426730  0.91572743    -0.72300
O214        O  0.19897401  0.23089706  0.91772415    -0.72300
O215        O  0.23103877  0.19901935  0.91570024    -0.72300
O216        O  0.13438926  0.10238837  0.91774822    -0.72300
O217        O  0.18172790  0.14972362  0.86838851    -0.72200
O218        O  0.18414510  0.15215178  0.96505510    -0.72400
V219        V  0.15121811  0.18191548  0.91672590     1.35200
V220        V  0.18214398  0.15137056  0.91672355     1.35200
C221        C  0.16670108  0.16666119  0.98141021     0.77000
C222        C  0.16665471  0.16662336  0.85198049     0.77100
C223        C  0.10196620  0.10193449  0.91674383     0.77000
C224        C  0.23139802  0.23135206  0.91671668     0.76900
O225        O  0.01690463  0.03198204  0.53506337    -0.72200
O226        O  0.01447723  0.03197179  0.63173592    -0.72400
O227        O  0.06424065  0.03197854  0.58442665    -0.72300
O228        O  0.30090937  0.03194775  0.58236154    -0.72300
O229        O  0.26907174  0.30137256  0.58436654    -0.72300
O230        O  0.03236623  0.30133813  0.58238120    -0.72300
O231        O  0.31878265  0.30138061  0.63172377    -0.72200
O232        O  0.31646490  0.30138465  0.53504898    -0.72400
V233        V  0.01525757  0.03074889  0.58340093     1.35200
V234        V  0.31805629  0.30260940  0.58338759     1.35200
C235        C  0.00002156  0.00000998  0.51865305     0.77000
C236        C  0.99999625  0.33329746  0.64808458     0.77100
C237        C  0.06469471  0.00000848  0.58343688     0.77000
C238        C  0.26858532  0.99996509  0.58336705     0.76900
O239        O  0.06423852  0.19862239  0.58440915    -0.72200
O240        O  0.30095246  0.19861866  0.58237243    -0.72400
O241        O  0.01448743  0.19862456  0.63173326    -0.72300
O242        O  0.01687089  0.19859910  0.53505365    -0.72300
O243        O  0.31642515  0.13466991  0.53504535    -0.72300
O244        O  0.31886561  0.13470826  0.63171965    -0.72300
O245        O  0.26908991  0.13467736  0.58440974    -0.72200
O246        O  0.03237335  0.13468039  0.58241160    -0.72400
V247        V  0.01524709  0.19738315  0.58339447     1.35200
V248        V  0.31807991  0.13591971  0.58338345     1.35200
C249        C  0.06470341  0.16665746  0.58341495     0.77000
C250        C  0.26862641  0.16664236  0.58339902     0.77100
C251        C  0.33335516  0.16665961  0.64807643     0.77000
C252        C  0.33331591  0.16663633  0.51862793     0.76900
O253        O  0.18348172  0.03194016  0.53505331    -0.72200
O254        O  0.18118582  0.03193417  0.63172158    -0.72400
O255        O  0.23088431  0.03194407  0.58435423    -0.72300
O256        O  0.13425301  0.03195004  0.58242185    -0.72300
O257        O  0.10239988  0.30133906  0.58442001    -0.72300
O258        O  0.19905269  0.30137450  0.58237886    -0.72300
O259        O  0.15217328  0.30137364  0.63173758    -0.72200
O260        O  0.14975484  0.30135803  0.53506475    -0.72400
V261        V  0.18190039  0.03070893  0.58338834     1.35200
V262        V  0.15139423  0.30259252  0.58340225     1.35200
C263        C  0.16665339  0.33333023  0.51865442     0.77000
C264        C  0.16666298  0.33332415  0.64809612     0.77100
C265        C  0.23134490  0.99997883  0.58335753     0.77000
C266        C  0.10192387  0.99997648  0.58343579     0.76900
O267        O  0.18355442  0.19863393  0.53507142    -0.72200
O268        O  0.18119162  0.19861283  0.63174040    -0.72400
O269        O  0.23092933  0.19863267  0.58439986    -0.72300
O270        O  0.13427677  0.19861855  0.58241561    -0.72300
O271        O  0.10241462  0.13467587  0.58440257    -0.72300
O272        O  0.19906296  0.13468935  0.58241133    -0.72300
O273        O  0.15216223  0.13470548  0.63174133    -0.72200
O274        O  0.14979490  0.13469134  0.53506723    -0.72400
V275        V  0.18193829  0.19739233  0.58340779     1.35200
V276        V  0.15140894  0.13592220  0.58340648     1.35200
C277        C  0.16667100  0.16666491  0.51865733     0.77000
C278        C  0.16667710  0.16666049  0.64809581     0.77100
C279        C  0.23139088  0.16666613  0.58340715     0.77000
C280        C  0.10194772  0.16663971  0.58341394     0.76900
O281        O  0.26908022  0.30102880  0.74894998    -0.72200
O282        O  0.03236406  0.06435998  0.75095709    -0.72400
O283        O  0.31882726  0.01746642  0.70159143    -0.72300
O284        O  0.31639022  0.01506770  0.79826035    -0.72300
O285        O  0.01690448  0.31823662  0.79827685    -0.72300
O286        O  0.01451315  0.31585493  0.70160191    -0.72300
O287        O  0.06422171  0.03227534  0.74892361    -0.72200
O288        O  0.30095010  0.26895559  0.75096108    -0.72400
V289        V  0.31804464  0.01547384  0.74992370     1.35200
V290        V  0.01527677  0.31783995  0.74993752     1.35200
C291        C  0.26862072  0.26860235  0.74995774     0.77000
C292        C  0.06468935  0.06470397  0.74993185     0.77100
C293        C  0.33329775  0.33332065  0.68524926     0.77000
C294        C  0.33336871  0.33330517  0.81468844     0.76900
O295        O  0.31882771  0.18409530  0.70159884    -0.72200
O296        O  0.31645536  0.18175460  0.79827759    -0.72400
O297        O  0.03238141  0.23100321  0.75100790    -0.72300
O298        O  0.26908204  0.13438021  0.74894834    -0.72300
O299        O  0.30094876  0.10230376  0.75096026    -0.72300
O300        O  0.06423716  0.19891710  0.74896929    -0.72300
O301        O  0.01685752  0.15154373  0.79829553    -0.72200
O302        O  0.01448874  0.14921968  0.70162083    -0.72400
V303        V  0.31807031  0.18212718  0.74993823     1.35200
V304        V  0.01524238  0.15117650  0.74995791     1.35200
C305        C  0.33334278  0.16665469  0.68524406     0.77000
C306        C  0.33334932  0.16667866  0.81469160     0.77100
C307        C  0.06470628  0.23134721  0.74998406     0.77000
C308        C  0.26862130  0.10195321  0.74995629     0.76900
O309        O  0.13427600  0.26895401  0.75095487    -0.72200
O310        O  0.23092529  0.03227044  0.74895146    -0.72400
O311        O  0.18354690  0.31822389  0.79828621    -0.72300
O312        O  0.18117536  0.31587478  0.70161372    -0.72300
O313        O  0.15220462  0.01745786  0.70159046    -0.72300
O314        O  0.14973681  0.01505270  0.79826142    -0.72300
O315        O  0.19905767  0.06434629  0.75095930    -0.72200
O316        O  0.10240739  0.30102915  0.74896063    -0.72400
V317        V  0.18192987  0.31784445  0.74995014     1.35200
V318        V  0.15140524  0.01546242  0.74992363     1.35200
C319        C  0.10194627  0.26860264  0.74996596     0.77000
C320        C  0.23138549  0.06469719  0.74995696     0.77100
C321        C  0.16665298  0.33330183  0.81469722     0.77000
C322        C  0.16666427  0.33331903  0.68525930     0.76900
O323        O  0.13425510  0.10229138  0.75091064    -0.72200
O324        O  0.23091680  0.19891333  0.74897352    -0.72400
O325        O  0.18351249  0.15151801  0.79827471    -0.72300
O326        O  0.18119404  0.14922589  0.70160836    -0.72300
O327        O  0.15215718  0.18409767  0.70160996    -0.72300
O328        O  0.14977979  0.18173044  0.79828000    -0.72300
O329        O  0.19905837  0.23099954  0.75094844    -0.72200
O330        O  0.10240403  0.13438548  0.74894360    -0.72400
V331        V  0.18191973  0.15116923  0.74994076     1.35200
V332        V  0.15140005  0.18212125  0.74994421     1.35200
C333        C  0.10193177  0.10195363  0.74992427     0.77000
C334        C  0.23138359  0.23134424  0.74996095     0.77100
C335        C  0.16664504  0.16662086  0.81468722     0.77000
C336        C  0.16667718  0.16666283  0.68525440     0.76900
O337        O  0.30134875  0.60229477  0.24907799    -0.72200
O338        O  0.30135218  0.36560035  0.25105960    -0.72400
O339        O  0.30134495  0.65156214  0.20174066    -0.72300
O340        O  0.30137717  0.64921387  0.29841355    -0.72300
O341        O  0.03195038  0.35077571  0.29837383    -0.72300
O342        O  0.03194200  0.34838231  0.20170636    -0.72300
O343        O  0.03193716  0.39766429  0.24903189    -0.72200
O344        O  0.03196692  0.63437479  0.25109765    -0.72400
V345        V  0.30258948  0.65118345  0.25007883     1.35200
V346        V  0.03071789  0.34878402  0.25004022     1.35200
C347        C  0.99999970  0.60195143  0.25006502     0.77000
C348        C  0.99995759  0.39801071  0.25005536     0.77100
C349        C  0.33331228  0.66663418  0.18532535     0.77000
C350        C  0.33331941  0.33332867  0.31474396     0.76900
O351        O  0.03194264  0.56433237  0.24903748    -0.72200
O352        O  0.03194059  0.46769390  0.25105621    -0.72400
O353        O  0.03191097  0.51503253  0.20171339    -0.72300
O354        O  0.03195181  0.51744516  0.29838107    -0.72300
O355        O  0.30139602  0.48257087  0.29841739    -0.72300
O356        O  0.30130945  0.48487961  0.20174147    -0.72300
O357        O  0.30134931  0.43563054  0.24908501    -0.72200
O358        O  0.30133634  0.53226131  0.25107842    -0.72400
V359        V  0.03070393  0.51544397  0.25004804     1.35200
V360        V  0.30257868  0.48451617  0.25008157     1.35200
C361        C  0.99996974  0.56468981  0.25005703     0.77000
C362        C  0.99997508  0.43526805  0.25006743     0.77100
C363        C  0.99993437  0.49994754  0.18531148     0.77000
C364        C  0.00000777  0.50000746  0.31474892     0.76900
O365        O  0.13473618  0.60231428  0.24904077    -0.72200
O366        O  0.13472629  0.36560907  0.25106618    -0.72400
O367        O  0.13471834  0.65158663  0.20171059    -0.72300
O368        O  0.13472910  0.64921293  0.29838472    -0.72300
O369        O  0.19865985  0.35076751  0.29838863    -0.72300
O370        O  0.19864317  0.34837814  0.20171740    -0.72300
O371        O  0.19866707  0.39767174  0.24904452    -0.72200
O372        O  0.19867760  0.63440332  0.25105279    -0.72400
V373        V  0.13594877  0.65119104  0.25004745     1.35200
V374        V  0.19742221  0.34877678  0.25005287     1.35200
C375        C  0.16671768  0.60197166  0.25005092     0.77000
C376        C  0.16669474  0.39803258  0.25005589     0.77100
C377        C  0.16669206  0.66668132  0.18530237     0.77000
C378        C  0.16668052  0.66667151  0.31474310     0.76900
O379        O  0.19870430  0.51509769  0.20172544    -0.72200
O380        O  0.19863358  0.51743299  0.29840188    -0.72400
O381        O  0.19868474  0.46772139  0.25106695    -0.72300
O382        O  0.19868007  0.56436316  0.24906136    -0.72300
O383        O  0.13473777  0.53228806  0.25105048    -0.72300
O384        O  0.13474457  0.43565024  0.24903030    -0.72300
O385        O  0.13472907  0.48253704  0.29837792    -0.72200
O386        O  0.13476331  0.48494674  0.20171026    -0.72400
V387        V  0.19744497  0.51547268  0.25006501     1.35200
V388        V  0.13597613  0.48453786  0.25004346     1.35200
C389        C  0.16673787  0.50002421  0.18530685     0.77000
C390        C  0.16667282  0.49997772  0.31474657     0.77100
C391        C  0.16671934  0.43529496  0.25005184     0.77000
C392        C  0.16670266  0.56471524  0.25005638     0.76900
O393        O  0.01506568  0.36530474  0.46493206    -0.72200
O394        O  0.01745698  0.36529134  0.36825344    -0.72400
O395        O  0.30107562  0.36532423  0.41559720    -0.72300
O396        O  0.06436273  0.36531125  0.41760379    -0.72300
O397        O  0.03230393  0.63471574  0.41560841    -0.72300
O398        O  0.26898536  0.63469540  0.41763160    -0.72300
O399        O  0.31588496  0.63470903  0.36828424    -0.72200
O400        O  0.31826813  0.63469192  0.46495165    -0.72400
V401        V  0.01547210  0.36407447  0.41659120     1.35200
V402        V  0.31787121  0.63592699  0.41661749     1.35200
C403        C  0.99997748  0.33333076  0.48134212     0.77000
C404        C  0.00001337  0.33333599  0.35189843     0.77100
C405        C  0.26865048  0.33335942  0.41661720     0.77000
C406        C  0.06471914  0.33333628  0.41659657     0.76900
O407        O  0.03227937  0.46798825  0.41559446    -0.72200
O408        O  0.26901056  0.46804189  0.41760379    -0.72400
O409        O  0.31592855  0.46808274  0.36826893    -0.72300
O410        O  0.31827470  0.46800384  0.46493830    -0.72300
O411        O  0.01509435  0.53194759  0.46493373    -0.72300
O412        O  0.01748357  0.53195115  0.36826838    -0.72300
O413        O  0.30108248  0.53198556  0.41562715    -0.72200
O414        O  0.06436605  0.53193070  0.41761682    -0.72400
V415        V  0.31789579  0.46927282  0.41660097     1.35200
V416        V  0.01549216  0.53071874  0.41660094     1.35200
C417        C  0.06470778  0.49994848  0.41660746     0.77000
C418        C  0.26865604  0.50001802  0.41660709     0.77100
C419        C  0.00002516  0.50000282  0.35190848     0.77000
C420        C  0.33336161  0.49996642  0.48136142     0.76900
O421        O  0.10232810  0.63472417  0.41759759    -0.72200
O422        O  0.19894981  0.63469234  0.41560991    -0.72400
O423        O  0.15158203  0.63470298  0.46493901    -0.72300
O424        O  0.14923537  0.63472522  0.36826560    -0.72300
O425        O  0.18416190  0.36529870  0.36827182    -0.72300
O426        O  0.18174299  0.36530803  0.46494742    -0.72300
O427        O  0.23104217  0.36531299  0.41763648    -0.72200
O428        O  0.13440828  0.36532195  0.41558594    -0.72400
V429        V  0.15120633  0.63594334  0.41660163     1.35200
V430        V  0.18215707  0.36407926  0.41660928     1.35200
C431        C  0.10198040  0.33335673  0.41659183     0.77000
C432        C  0.23139452  0.33333688  0.41662357     0.77100
C433        C  0.16666329  0.33333474  0.48135698     0.77000
C434        C  0.16668170  0.66667684  0.35190776     0.76900
O435        O  0.10231694  0.46798957  0.41762116    -0.72200
O436        O  0.19897064  0.46801665  0.41559022    -0.72400
O437        O  0.15161459  0.46800729  0.46494182    -0.72300
O438        O  0.14921898  0.46801584  0.36826628    -0.72300
O439        O  0.18409925  0.53192227  0.36826658    -0.72300
O440        O  0.18175158  0.53194851  0.46493763    -0.72300
O441        O  0.23102867  0.53195898  0.41760015    -0.72200
O442        O  0.13438079  0.53193226  0.41560591    -0.72400
V443        V  0.15121160  0.46923770  0.41660373     1.35200
V444        V  0.18213301  0.53070771  0.41660115     1.35200
C445        C  0.10195981  0.49996424  0.41661180     0.77000
C446        C  0.23139209  0.49998764  0.41659531     0.77100
C447        C  0.16668207  0.49997978  0.48135115     0.77000
C448        C  0.16665819  0.49996987  0.35190973     0.76900
O449        O  0.03194727  0.34782487  0.03493368    -0.72200
O450        O  0.03194431  0.35021072  0.13159973    -0.72400
O451        O  0.03195214  0.63425759  0.08426044    -0.72300
O452        O  0.03195390  0.39757017  0.08225362    -0.72300
O453        O  0.30135055  0.36570763  0.08428213    -0.72300
O454        O  0.30132806  0.60240076  0.08225542    -0.72300
O455        O  0.30133895  0.64975060  0.13161255    -0.72200
O456        O  0.30136576  0.65217475  0.03493593    -0.72400
V457        V  0.03072027  0.34858560  0.08326547     1.35200
V458        V  0.30257852  0.65139279  0.08327306     1.35200
C459        C  0.33331995  0.66668393  0.01858116     0.77000
C460        C  0.00002136  0.66665584  0.14801246     0.77100
C461        C  0.99997197  0.60193112  0.08325853     0.77000
C462        C  0.99998604  0.39802640  0.08326178     0.76900
O463        O  0.03193862  0.51450434  0.03494070    -0.72200
O464        O  0.03191030  0.51683443  0.13161121    -0.72400
O465        O  0.03193390  0.46758637  0.08426632    -0.72300
O466        O  0.03194497  0.56422556  0.08228585    -0.72300
O467        O  0.30132906  0.53236925  0.08427067    -0.72300
O468        O  0.30132954  0.43572854  0.08224800    -0.72300
O469        O  0.30130346  0.48306886  0.13159954    -0.72200
O470        O  0.30137120  0.48550061  0.03492432    -0.72400
V471        V  0.03069925  0.51523714  0.08327530     1.35200
V472        V  0.30256397  0.48471610  0.08325970     1.35200
C473        C  0.33333112  0.50001045  0.01857917     0.77000
C474        C  0.33326956  0.49995788  0.14801955     0.77100
C475        C  0.99995910  0.43525851  0.08325798     0.77000
C476        C  0.99998163  0.56468999  0.08326595     0.76900
O477        O  0.13474384  0.65214823  0.03492744    -0.72200
O478        O  0.13472579  0.64980401  0.13159610    -0.72400
O479        O  0.13473623  0.36571415  0.08426504    -0.72300
O480        O  0.13471638  0.60241675  0.08227905    -0.72300
O481        O  0.19865901  0.63428043  0.08427513    -0.72300
O482        O  0.19867697  0.39758081  0.08224660    -0.72300
O483        O  0.19865233  0.35022127  0.13160725    -0.72200
O484        O  0.19866985  0.34781809  0.03493592    -0.72400
V485        V  0.13596271  0.65140793  0.08326098     1.35200
V486        V  0.19743751  0.34858980  0.08327003     1.35200
C487        C  0.16669553  0.66665440  0.01857125     0.77000
C488        C  0.16669557  0.66668773  0.14800724     0.77100
C489        C  0.16671318  0.39804484  0.08325002     0.77000
C490        C  0.16668082  0.60195401  0.08327675     0.76900
O491        O  0.19863323  0.51453042  0.03492338    -0.72200
O492        O  0.19869762  0.51689458  0.13159179    -0.72400
O493        O  0.19866955  0.46761751  0.08423718    -0.72300
O494        O  0.19867015  0.56426135  0.08227305    -0.72300
O495        O  0.13472799  0.53239078  0.08427693    -0.72300
O496        O  0.13472648  0.43574889  0.08227379    -0.72300
O497        O  0.13475549  0.48313328  0.13160939    -0.72200
O498        O  0.13472582  0.48548936  0.03494088    -0.72400
V499        V  0.19743554  0.51527506  0.08325544     1.35200
V500        V  0.13596573  0.48473979  0.08327417     1.35200
C501        C  0.16667444  0.50001621  0.01857780     0.77000
C502        C  0.16673290  0.50001878  0.14801134     0.77100
C503        C  0.16669165  0.43528612  0.08325002     0.77000
C504        C  0.16670352  0.56471968  0.08327507     0.76900
O505        O  0.01741780  0.65212474  0.96507023    -0.72200
O506        O  0.01510325  0.64975289  0.86839831    -0.72400
O507        O  0.06435757  0.36573660  0.91574147    -0.72300
O508        O  0.30104596  0.60241414  0.91772735    -0.72300
O509        O  0.26898004  0.63429181  0.91572075    -0.72300
O510        O  0.03227277  0.39759594  0.91772949    -0.72300
O511        O  0.31829503  0.35020762  0.86838493    -0.72200
O512        O  0.31585868  0.34780922  0.96505168    -0.72400
V513        V  0.01546808  0.65137455  0.91673664     1.35200
V514        V  0.31787271  0.34857844  0.91671813     1.35200
C515        C  0.33332526  0.66668576  0.98141691     0.77000
C516        C  0.33334799  0.66664557  0.85197274     0.77100
C517        C  0.06470169  0.39806318  0.91674252     0.77000
C518        C  0.26862334  0.60196087  0.91672677     0.76900
O519        O  0.01745940  0.48550189  0.96506445    -0.72200
O520        O  0.01506163  0.48306758  0.86838978    -0.72400
O521        O  0.06434684  0.53236543  0.91571114    -0.72300
O522        O  0.30105776  0.43572965  0.91774767    -0.72300
O523        O  0.26898013  0.46759515  0.91573692    -0.72300
O524        O  0.03227306  0.56423494  0.91773509    -0.72300
O525        O  0.31823846  0.51684832  0.86838850    -0.72200
O526        O  0.31590299  0.51452233  0.96505640    -0.72400
V527        V  0.01546687  0.48471665  0.91672981     1.35200
V528        V  0.31786676  0.51525236  0.91672260     1.35200
C529        C  0.00000074  0.49999876  0.98141598     0.77000
C530        C  0.33331944  0.49995566  0.85198169     0.77100
C531        C  0.06469719  0.56469264  0.91673231     0.77000
C532        C  0.26863072  0.43526639  0.91674167     0.76900
O533        O  0.18412470  0.65213156  0.96505372    -0.72200
O534        O  0.18171630  0.64971030  0.86838257    -0.72400
O535        O  0.23102548  0.36569797  0.91570434    -0.72300
O536        O  0.13437553  0.60237422  0.91774040    -0.72300
O537        O  0.10230818  0.63425107  0.91573958    -0.72300
O538        O  0.19894939  0.39756409  0.91773992    -0.72300
O539        O  0.15157965  0.35019682  0.86840535    -0.72200
O540        O  0.14924743  0.34781947  0.96507411    -0.72400
V541        V  0.18212680  0.65135542  0.91671963     1.35200
V542        V  0.15120457  0.34857621  0.91674177     1.35200
C543        C  0.16669008  0.66664957  0.98141096     0.77000
C544        C  0.16663351  0.66660026  0.85197282     0.77100
C545        C  0.23137576  0.39802673  0.91672972     0.77000
C546        C  0.10195336  0.60192105  0.91674232     0.76900
O547        O  0.14920752  0.51451874  0.96506925    -0.72200
O548        O  0.15158028  0.51691502  0.86839635    -0.72400
O549        O  0.10230312  0.46763094  0.91572693    -0.72300
O550        O  0.19893881  0.56427392  0.91774310    -0.72300
O551        O  0.23100858  0.53240141  0.91570509    -0.72300
O552        O  0.13438077  0.43576613  0.91775943    -0.72300
O553        O  0.18171087  0.48310372  0.86839949    -0.72200
O554        O  0.18412699  0.48553274  0.96506252    -0.72400
V555        V  0.15118865  0.51528620  0.91673481     1.35200
V556        V  0.18212487  0.48475184  0.91673262     1.35200
C557        C  0.16666772  0.50002297  0.98142037     0.77000
C558        C  0.16664276  0.50000447  0.85198684     0.77100
C559        C  0.10195455  0.43530279  0.91674702     0.77000
C560        C  0.23136284  0.56473081  0.91672649     0.76900
O561        O  0.01685200  0.36528701  0.53505956    -0.72200
O562        O  0.01449973  0.36525131  0.63173120    -0.72400
O563        O  0.06422980  0.36528105  0.58438429    -0.72300
O564        O  0.30094040  0.36531651  0.58238397    -0.72300
O565        O  0.26906204  0.63467040  0.58440722    -0.72300
O566        O  0.03237855  0.63470932  0.58239548    -0.72300
O567        O  0.31882495  0.63469237  0.63172482    -0.72200
O568        O  0.31642643  0.63468753  0.53506055    -0.72400
V569        V  0.01524212  0.36403975  0.58339721     1.35200
V570        V  0.31805526  0.63591664  0.58339389     1.35200
C571        C  0.99996704  0.33332031  0.51864210     0.77000
C572        C  0.99996107  0.66665780  0.64808760     0.77100
C573        C  0.06469285  0.33331632  0.58338964     0.77000
C574        C  0.26861219  0.33333867  0.58338010     0.76900
O575        O  0.06427603  0.53199652  0.58440303    -0.72200
O576        O  0.30094891  0.53194340  0.58235960    -0.72400
O577        O  0.01449905  0.53197983  0.63171169    -0.72300
O578        O  0.01691891  0.53196262  0.53504008    -0.72300
O579        O  0.31648777  0.46799234  0.53507734    -0.72300
O580        O  0.31881895  0.46806923  0.63175214    -0.72300
O581        O  0.26909055  0.46800147  0.58438342    -0.72200
O582        O  0.03241440  0.46805373  0.58239861    -0.72400
V583        V  0.01528144  0.53074688  0.58337602     1.35200
V584        V  0.31808525  0.46925441  0.58341804     1.35200
C585        C  0.06474020  0.50003111  0.58340704     0.77000
C586        C  0.26862291  0.49996241  0.58337227     0.77100
C587        C  0.33332088  0.50003044  0.64809453     0.77000
C588        C  0.33336976  0.49996003  0.51865833     0.76900
O589        O  0.18354766  0.36529961  0.53506751    -0.72200
O590        O  0.18114606  0.36527696  0.63174085    -0.72400
O591        O  0.23090776  0.36531636  0.58441188    -0.72300
O592        O  0.13425466  0.36528073  0.58238847    -0.72300
O593        O  0.10239295  0.63469118  0.58440835    -0.72300
O594        O  0.19902710  0.63468093  0.58239055    -0.72300
O595        O  0.15213337  0.63469855  0.63172950    -0.72200
O596        O  0.14975009  0.63469296  0.53505979    -0.72400
V597        V  0.18191405  0.36406210  0.58340407     1.35200
V598        V  0.15137563  0.63592204  0.58339758     1.35200
C599        C  0.16665319  0.66666629  0.51865127     0.77000
C600        C  0.16663366  0.66664955  0.64808648     0.77100
C601        C  0.23137617  0.33335553  0.58339137     0.77000
C602        C  0.10193086  0.33330022  0.58340168     0.76900
O603        O  0.18356573  0.53195635  0.53505961    -0.72200
O604        O  0.18119872  0.53193178  0.63173479    -0.72400
O605        O  0.23092895  0.53194771  0.58438736    -0.72300
O606        O  0.13430594  0.53197389  0.58240501    -0.72300
O607        O  0.10242469  0.46803078  0.58440044    -0.72300
O608        O  0.19905318  0.46800478  0.58238627    -0.72300
O609        O  0.15216131  0.46802435  0.63173037    -0.72200
O610        O  0.14977911  0.46801456  0.53505990    -0.72400
V611        V  0.18194928  0.53072045  0.58339818     1.35200
V612        V  0.15140388  0.46925021  0.58339563     1.35200
C613        C  0.16667609  0.49998448  0.51864841     0.77000
C614        C  0.16668209  0.49997569  0.64808894     0.77100
C615        C  0.23138527  0.49998105  0.58338161     0.77000
C616        C  0.10197347  0.50000287  0.58340793     0.76900
O617        O  0.26908752  0.63436208  0.74894059    -0.72200
O618        O  0.03239029  0.39766168  0.75094272    -0.72400
O619        O  0.31881540  0.35078046  0.70162032    -0.72300
O620        O  0.31645333  0.34836854  0.79828940    -0.72300
O621        O  0.01689848  0.65154757  0.79826332    -0.72300
O622        O  0.01449377  0.64921065  0.70158946    -0.72300
O623        O  0.06426215  0.36559014  0.74893091    -0.72200
O624        O  0.30095108  0.60228123  0.75092161    -0.72400
V625        V  0.31806677  0.34877927  0.74995578     1.35200
V626        V  0.01526573  0.65117370  0.74992389     1.35200
C627        C  0.26862318  0.60193409  0.74993154     0.77000
C628        C  0.06471940  0.39801495  0.74993434     0.77100
C629        C  0.33333022  0.66663829  0.68523887     0.77000
C630        C  0.33335083  0.66663823  0.81467454     0.76900
O631        O  0.31881787  0.51747491  0.70161734    -0.72200
O632        O  0.31643716  0.51505695  0.79828568    -0.72400
O633        O  0.03236589  0.56433505  0.75094739    -0.72300
O634        O  0.26907108  0.46771745  0.74894226    -0.72300
O635        O  0.30094292  0.43564499  0.75091723    -0.72300
O636        O  0.06423020  0.53225639  0.74891600    -0.72300
O637        O  0.01687122  0.48488460  0.79825416    -0.72200
O638        O  0.01448482  0.48256013  0.70158010    -0.72400
V639        V  0.31806097  0.51547087  0.74995154     1.35200
V640        V  0.01524540  0.48451521  0.74991403     1.35200
C641        C  0.33333008  0.50003940  0.68525312     0.77000
C642        C  0.33332093  0.49996279  0.81468687     0.77100
C643        C  0.06469142  0.56468153  0.74992728     0.77000
C644        C  0.26861173  0.43529029  0.74992998     0.76900
O645        O  0.13425178  0.60228023  0.75092640    -0.72200
O646        O  0.23091806  0.36559891  0.74895025    -0.72400
O647        O  0.18353430  0.65154204  0.79825837    -0.72300
O648        O  0.18113487  0.64919165  0.70159131    -0.72300
O649        O  0.15214873  0.35075542  0.70161821    -0.72300
O650        O  0.14977025  0.34839052  0.79828780    -0.72300
O651        O  0.19904488  0.39766884  0.75095206    -0.72200
O652        O  0.10238488  0.63435759  0.74892532    -0.72400
V653        V  0.18190393  0.65116494  0.74992200     1.35200
V654        V  0.15139338  0.34877870  0.74995301     1.35200
C655        C  0.10192490  0.60193248  0.74992375     0.77000
C656        C  0.23137637  0.39802522  0.74994240     0.77100
C657        C  0.16663381  0.66660780  0.81467628     0.77000
C658        C  0.16663083  0.66664455  0.68524302     0.76900
O659        O  0.13427810  0.43562516  0.75095087    -0.72200
O660        O  0.23091788  0.53225144  0.74895331    -0.72400
O661        O  0.18353404  0.48490411  0.79828932    -0.72300
O662        O  0.18118203  0.48252803  0.70161422    -0.72300
O663        O  0.15216397  0.51741693  0.70160029    -0.72300
O664        O  0.14976148  0.51507475  0.79826956    -0.72300
O665        O  0.19905571  0.56433357  0.75093577    -0.72200
O666        O  0.10240968  0.46769982  0.74893177    -0.72400
V667        V  0.18192795  0.48450898  0.74995123     1.35200
V668        V  0.15139740  0.51544933  0.74993366     1.35200
C669        C  0.10195037  0.43527386  0.74993688     0.77000
C670        C  0.23138309  0.56467981  0.74993928     0.77100
C671        C  0.16664423  0.49999370  0.81469062     0.77000
C672        C  0.16667652  0.49997261  0.68525098     0.76900
O673        O  0.30135338  0.93563092  0.24903119    -0.72200
O674        O  0.30136062  0.69893639  0.25107824    -0.72400
O675        O  0.30132678  0.98492220  0.20171970    -0.72300
O676        O  0.30137566  0.98252637  0.29839139    -0.72300
O677        O  0.03193459  0.68412522  0.29840126    -0.72300
O678        O  0.03199105  0.68171885  0.20172785    -0.72300
O679        O  0.03196920  0.73101835  0.24903274    -0.72200
O680        O  0.03195256  0.96770636  0.25109073    -0.72400
V681        V  0.30257879  0.98451637  0.25005758     1.35200
V682        V  0.03073505  0.68212840  0.25006641     1.35200
C683        C  0.99998698  0.93528247  0.25008536     0.77000
C684        C  0.99999226  0.73137144  0.25004719     0.77100
C685        C  0.33329359  0.00000102  0.18530330     0.77000
C686        C  0.33333129  0.66665816  0.31476684     0.76900
O687        O  0.03194377  0.89768049  0.24906524    -0.72200
O688        O  0.03196837  0.80105635  0.25104599    -0.72400
O689        O  0.03193597  0.84841650  0.20171818    -0.72300
O690        O  0.03194519  0.85077289  0.29839327    -0.72300
O691        O  0.30139067  0.81588196  0.29840432    -0.72300
O692        O  0.30136139  0.81822502  0.20173145    -0.72300
O693        O  0.30137623  0.76896693  0.24907428    -0.72200
O694        O  0.30135509  0.86559517  0.25105864    -0.72400
V695        V  0.03071689  0.84879938  0.25005655     1.35200
V696        V  0.30260306  0.81784934  0.25006882     1.35200
C697        C  0.99996589  0.89802812  0.25008367     0.77000
C698        C  0.00000672  0.76862745  0.25004663     0.77100
C699        C  0.99996081  0.83333700  0.18531282     0.77000
C700        C  0.99999367  0.83332518  0.31475214     0.76900
O701        O  0.13474260  0.93564769  0.24904683    -0.72200
O702        O  0.13468660  0.69892680  0.25104974    -0.72400
O703        O  0.13471648  0.98493090  0.20173271    -0.72300
O704        O  0.13478684  0.98254961  0.29840342    -0.72300
O705        O  0.19863270  0.68412194  0.29838700    -0.72300
O706        O  0.19866045  0.68176312  0.20171565    -0.72300
O707        O  0.19862917  0.73101567  0.24904692    -0.72200
O708        O  0.19868500  0.96771764  0.25104888    -0.72400
V709        V  0.13597754  0.98453196  0.25007069     1.35200
V710        V  0.19741805  0.68214337  0.25005151     1.35200
C711        C  0.16671776  0.93529365  0.25004903     0.77000
C712        C  0.16664735  0.73135608  0.25005079     0.77100
C713        C  0.16668024  0.00000318  0.18531141     0.77000
C714        C  0.16674444  0.00000950  0.31475049     0.76900
O715        O  0.19864329  0.84838377  0.20171627    -0.72200
O716        O  0.19863689  0.85076477  0.29838398    -0.72400
O717        O  0.19863491  0.80102868  0.25105481    -0.72300
O718        O  0.19865984  0.89767340  0.24903838    -0.72300
O719        O  0.13471819  0.86561338  0.25105852    -0.72300
O720        O  0.13469241  0.76896482  0.24904586    -0.72300
O721        O  0.13473138  0.81588031  0.29838940    -0.72200
O722        O  0.13470244  0.81824679  0.20171618    -0.72400
V723        V  0.19741144  0.84878089  0.25004959     1.35200
V724        V  0.13594178  0.81785799  0.25005367     1.35200
C725        C  0.16667413  0.83331300  0.18530601     0.77000
C726        C  0.16668652  0.83332221  0.31474316     0.77100
C727        C  0.16666606  0.76860794  0.25005219     0.77000
C728        C  0.16668800  0.89803384  0.25004956     0.76900
O729        O  0.01511441  0.69866314  0.46494370    -0.72200
O730        O  0.01742396  0.69861914  0.36826932    -0.72400
O731        O  0.30106023  0.69863791  0.41561935    -0.72300
O732        O  0.06437000  0.69865961  0.41759099    -0.72300
O733        O  0.03227389  0.96801522  0.41558277    -0.72300
O734        O  0.26899890  0.96804807  0.41763563    -0.72300
O735        O  0.31587914  0.96805300  0.36826473    -0.72200
O736        O  0.31829809  0.96803794  0.46493149    -0.72400
V737        V  0.01547683  0.69741398  0.41660576     1.35200
V738        V  0.31788380  0.96927629  0.41659693     1.35200
C739        C  0.00003659  0.66669479  0.48135846     0.77000
C740        C  0.99998161  0.66666287  0.35191723     0.77100
C741        C  0.26863409  0.66667309  0.41662184     0.77000
C742        C  0.06472666  0.66668440  0.41659507     0.76900
O743        O  0.03226040  0.80134393  0.41560943    -0.72200
O744        O  0.26898273  0.80136257  0.41762280    -0.72400
O745        O  0.31588577  0.80137159  0.36827622    -0.72300
O746        O  0.31825671  0.80134398  0.46494493    -0.72300
O747        O  0.01506648  0.86528121  0.46494553    -0.72300
O748        O  0.01741262  0.86528000  0.36827080    -0.72300
O749        O  0.30106450  0.86530523  0.41561410    -0.72200
O750        O  0.06433314  0.86528663  0.41759224    -0.72400
V751        V  0.31786270  0.80258410  0.41661099     1.35200
V752        V  0.01544314  0.86405397  0.41660630     1.35200
C753        C  0.06468893  0.83331065  0.41659116     0.77000
C754        C  0.26863605  0.83334280  0.41661844     0.77100
C755        C  0.99998904  0.83332714  0.35191271     0.77000
C756        C  0.33333804  0.83331441  0.48135487     0.76900
O757        O  0.10231210  0.96802437  0.41754678    -0.72200
O758        O  0.19895962  0.96803419  0.41564537    -0.72400
O759        O  0.15152664  0.96801074  0.46493161    -0.72300
O760        O  0.14928968  0.96805905  0.36826189    -0.72300
O761        O  0.18413087  0.69863041  0.36826473    -0.72300
O762        O  0.18175741  0.69864545  0.46494264    -0.72300
O763        O  0.23103159  0.69863510  0.41761297    -0.72200
O764        O  0.13441056  0.69866722  0.41559773    -0.72400
V765        V  0.15120390  0.96926432  0.41659531     1.35200
V766        V  0.18215139  0.69741324  0.41660319     1.35200
C767        C  0.10198235  0.66670452  0.41659411     0.77000
C768        C  0.23137825  0.66665497  0.41661387     0.77100
C769        C  0.16666444  0.66667206  0.48135288     0.77000
C770        C  0.16674376  0.00001404  0.35191123     0.76900
O771        O  0.10231368  0.80136229  0.41761351    -0.72200
O772        O  0.19895466  0.80136129  0.41559142    -0.72400
O773        O  0.15160770  0.80137055  0.46493790    -0.72300
O774        O  0.14921875  0.80137616  0.36826492    -0.72300
O775        O  0.18415413  0.86527887  0.36826000    -0.72300
O776        O  0.18171344  0.86531035  0.46493299    -0.72300
O777        O  0.23102589  0.86530198  0.41764029    -0.72200
O778        O  0.13438155  0.86530176  0.41555227    -0.72400
V779        V  0.15120503  0.80259901  0.41660053     1.35200
V780        V  0.18213702  0.86406766  0.41659504     1.35200
C781        C  0.10195496  0.83333585  0.41658083     0.77000
C782        C  0.23137978  0.83332558  0.41661700     0.77100
C783        C  0.16666279  0.83334166  0.48134771     0.77000
C784        C  0.16668971  0.83332559  0.35190569     0.76900
O785        O  0.03193118  0.68115188  0.03492659    -0.72200
O786        O  0.03198636  0.68355049  0.13159390    -0.72400
O787        O  0.03194413  0.96759564  0.08427091    -0.72300
O788        O  0.03196009  0.73090690  0.08225575    -0.72300
O789        O  0.30135573  0.69904782  0.08429231    -0.72300
O790        O  0.30135633  0.93573094  0.08226018    -0.72300
O791        O  0.30133118  0.98310082  0.13158631    -0.72200
O792        O  0.30140347  0.98547348  0.03491308    -0.72400
V793        V  0.03072652  0.68191747  0.08325751     1.35200
V794        V  0.30259269  0.98471754  0.08324756     1.35200
C795        C  0.33336314  0.99998013  0.01856811     0.77000
C796        C  0.99998617  0.99998539  0.14802345     0.77100
C797        C  0.99996383  0.93527010  0.08325699     0.77000
C798        C  0.99999167  0.73136472  0.08327292     0.76900
O799        O  0.03192133  0.84779379  0.03493875    -0.72200
O800        O  0.03192506  0.85022808  0.13160497    -0.72400
O801        O  0.03193278  0.80092752  0.08430001    -0.72300
O802        O  0.03193995  0.89756611  0.08224006    -0.72300
O803        O  0.30136587  0.86570633  0.08427729    -0.72300
O804        O  0.30135460  0.76906584  0.08227065    -0.72300
O805        O  0.30135877  0.81642364  0.13160876    -0.72200
O806        O  0.30138091  0.81880804  0.03493415    -0.72400
V807        V  0.03069713  0.84857848  0.08327002     1.35200
V808        V  0.30259662  0.81805167  0.08327113     1.35200
C809        C  0.33333202  0.83329834  0.01857640     0.77000
C810        C  0.33332954  0.83331652  0.14802065     0.77100
C811        C  0.99996049  0.76859831  0.08327844     0.77000
C812        C  0.99997778  0.89803084  0.08324815     0.76900
O813        O  0.13474544  0.98546379  0.03492768    -0.72200
O814        O  0.13470622  0.98310696  0.13159980    -0.72400
O815        O  0.13473718  0.69906253  0.08424600    -0.72300
O816        O  0.13472116  0.93573224  0.08227685    -0.72300
O817        O  0.19866293  0.96760542  0.08429252    -0.72300
O818        O  0.19868023  0.73092452  0.08224977    -0.72300
O819        O  0.19866797  0.68356927  0.13159724    -0.72200
O820        O  0.19864960  0.68116628  0.03492604    -0.72400
V821        V  0.13595309  0.98471597  0.08326097     1.35200
V822        V  0.19743271  0.68193533  0.08326087     1.35200
C823        C  0.16670106  0.99997976  0.01857657     0.77000
C824        C  0.16667548  0.00000360  0.14801387     0.77100
C825        C  0.16671611  0.73138706  0.08324485     0.77000
C826        C  0.16668824  0.93527577  0.08328317     0.76900
O827        O  0.19866465  0.84784062  0.03493638    -0.72200
O828        O  0.19865831  0.85020680  0.13160783    -0.72400
O829        O  0.19867288  0.80094523  0.08427021    -0.72300
O830        O  0.19867876  0.89758313  0.08227624    -0.72300
O831        O  0.13473626  0.86571437  0.08427543    -0.72300
O832        O  0.13473080  0.76907824  0.08224935    -0.72300
O833        O  0.13471672  0.81642222  0.13159576    -0.72200
O834        O  0.13475907  0.81882991  0.03493213    -0.72400
V835        V  0.19743803  0.84859503  0.08327166     1.35200
V836        V  0.13596809  0.81806174  0.08326217     1.35200
C837        C  0.16671178  0.83332930  0.01857961     0.77000
C838        C  0.16668211  0.83331251  0.14801187     0.77100
C839        C  0.16669660  0.76861928  0.08325156     0.77000
C840        C  0.16671322  0.89804275  0.08327806     0.76900
O841        O  0.01744132  0.98548504  0.96507567    -0.72200
O842        O  0.01506492  0.98309107  0.86840260    -0.72400
O843        O  0.06436791  0.69901813  0.91574695    -0.72300
O844        O  0.30105402  0.93573200  0.91772820    -0.72300
O845        O  0.26896788  0.96759125  0.91575774    -0.72300
O846        O  0.03230967  0.73090485  0.91771782    -0.72300
O847        O  0.31825730  0.68353466  0.86837392    -0.72200
O848        O  0.31589469  0.68120408  0.96505118    -0.72400
V849        V  0.01545986  0.98471959  0.91674166     1.35200
V850        V  0.31786838  0.68193738  0.91671293     1.35200
C851        C  0.33336986  0.99999451  0.98140750     0.77000
C852        C  0.33326855  0.99997150  0.85197033     0.77100
C853        C  0.06472972  0.73135364  0.91673581     0.77000
C854        C  0.26862561  0.93526658  0.91674926     0.76900
O855        O  0.01744150  0.81881342  0.96506776    -0.72200
O856        O  0.01511676  0.81647427  0.86839838    -0.72400
O857        O  0.06436398  0.86573019  0.91575056    -0.72300
O858        O  0.30105947  0.76904931  0.91770578    -0.72300
O859        O  0.26897260  0.80090555  0.91570324    -0.72300
O860        O  0.03228410  0.89759362  0.91776878    -0.72300
O861        O  0.31824065  0.85021351  0.86838378    -0.72200
O862        O  0.31586865  0.84778811  0.96505789    -0.72400
V863        V  0.01548277  0.81807489  0.91673453     1.35200
V864        V  0.31785096  0.84856842  0.91672217     1.35200
C865        C  0.99998117  0.83330546  0.98142205     0.77000
C866        C  0.33331481  0.83332209  0.85196417     0.77100
C867        C  0.06471071  0.89805635  0.91676644     0.77000
C868        C  0.26862872  0.76857940  0.91670229     0.76900
O869        O  0.18414175  0.98549259  0.96505169    -0.72200
O870        O  0.18171713  0.98309623  0.86838536    -0.72400
O871        O  0.23101730  0.69900757  0.91569655    -0.72300
O872        O  0.13438874  0.93574719  0.91774246    -0.72300
O873        O  0.10231529  0.96761855  0.91575792    -0.72300
O874        O  0.19894672  0.73088024  0.91770188    -0.72300
O875        O  0.15155969  0.68349646  0.86838562    -0.72200
O876        O  0.14924363  0.68115810  0.96505699    -0.72400
V877        V  0.18213535  0.98472955  0.91672002     1.35200
V878        V  0.15119652  0.68189620  0.91672211     1.35200
C879        C  0.16670312  0.99999916  0.98141778     0.77000
C880        C  0.16662985  0.99998403  0.85197976     0.77100
C881        C  0.23137157  0.73133903  0.91669928     0.77000
C882        C  0.10196433  0.93528993  0.91676105     0.76900
O883        O  0.14924735  0.84781736  0.96507055    -0.72200
O884        O  0.15158507  0.85020042  0.86840172    -0.72400
O885        O  0.10233254  0.80091452  0.91573984    -0.72300
O886        O  0.19894791  0.89756436  0.91774076    -0.72300
O887        O  0.23103402  0.86570660  0.91573348    -0.72300
O888        O  0.13441618  0.76905376  0.91772453    -0.72300
O889        O  0.18176867  0.81644044  0.86839030    -0.72200
O890        O  0.18413846  0.81880120  0.96506290    -0.72400
V891        V  0.15120958  0.84857330  0.91673874     1.35200
V892        V  0.18215701  0.81804949  0.91672834     1.35200
C893        C  0.16670286  0.83331775  0.98142142     0.77000
C894        C  0.16667457  0.83332251  0.85198424     0.77100
C895        C  0.10198758  0.76858803  0.91673527     0.77000
C896        C  0.23137606  0.89803044  0.91674565     0.76900
O897        O  0.01692592  0.69866113  0.53507006    -0.72200
O898        O  0.01445518  0.69861423  0.63173842    -0.72400
O899        O  0.06424472  0.69865063  0.58444391    -0.72300
O900        O  0.30092393  0.69861231  0.58238790    -0.72300
O901        O  0.26905700  0.96800581  0.58438362    -0.72300
O902        O  0.03236487  0.96803524  0.58242891    -0.72300
O903        O  0.31881693  0.96805276  0.63172496    -0.72200
O904        O  0.31644106  0.96802933  0.53505067    -0.72400
V905        V  0.01525858  0.69741121  0.58340583     1.35200
V906        V  0.31805493  0.96926445  0.58338928     1.35200
C907        C  0.00002961  0.66669348  0.51865394     0.77000
C908        C  0.99995712  0.00001871  0.64809329     0.77100
C909        C  0.06470522  0.66668516  0.58342282     0.77000
C910        C  0.26859655  0.66663423  0.58340196     0.76900
O911        O  0.06425434  0.86528753  0.58440496    -0.72200
O912        O  0.30096638  0.86529978  0.58239787    -0.72400
O913        O  0.01451327  0.86526724  0.63173923    -0.72300
O914        O  0.01688210  0.86527840  0.53506602    -0.72300
O915        O  0.31646273  0.80134594  0.53505620    -0.72300
O916        O  0.31882521  0.80137414  0.63171968    -0.72300
O917        O  0.26909387  0.80135561  0.58437874    -0.72200
O918        O  0.03238898  0.80134524  0.58239997    -0.72400
V919        V  0.01526515  0.86404764  0.58340484     1.35200
V920        V  0.31807694  0.80258838  0.58338873     1.35200
C921        C  0.06471824  0.83332332  0.58340741     0.77000
C922        C  0.26863711  0.83332389  0.58339113     0.77100
C923        C  0.33334856  0.83332922  0.64807190     0.77000
C924        C  0.33334041  0.83331687  0.51864533     0.76900
O925        O  0.18354845  0.69863420  0.53506653    -0.72200
O926        O  0.18114511  0.69860516  0.63173533    -0.72400
O927        O  0.23089924  0.69862276  0.58441213    -0.72300
O928        O  0.13426686  0.69863404  0.58239850    -0.72300
O929        O  0.10237915  0.96800713  0.58442939    -0.72300
O930        O  0.19901562  0.96800091  0.58235824    -0.72300
O931        O  0.15216190  0.96802735  0.63172874    -0.72200
O932        O  0.14970046  0.96799795  0.53505578    -0.72400
V933        V  0.18191509  0.69739218  0.58340341     1.35200
V934        V  0.15136315  0.96923855  0.58339355     1.35200
C935        C  0.16658183  0.99996951  0.51864380     0.77000
C936        C  0.16668900  0.99998455  0.64808090     0.77100
C937        C  0.23135787  0.66665568  0.58340438     0.77000
C938        C  0.10193731  0.66665980  0.58341354     0.76900
O939        O  0.18355370  0.86531093  0.53506091    -0.72200
O940        O  0.18120527  0.86527835  0.63173464    -0.72400
O941        O  0.23094029  0.86531275  0.58438359    -0.72300
O942        O  0.13428681  0.86528931  0.58241645    -0.72300
O943        O  0.10242823  0.80134572  0.58439368    -0.72300
O944        O  0.19907721  0.80136930  0.58239281    -0.72300
O945        O  0.15217484  0.80137106  0.63172834    -0.72200
O946        O  0.14980350  0.80136797  0.53505600    -0.72400
V947        V  0.18194743  0.86406634  0.58339975     1.35200
V948        V  0.15142180  0.80259596  0.58339368     1.35200
C949        C  0.16667319  0.83334175  0.51864638     0.77000
C950        C  0.16668753  0.83332266  0.64808711     0.77100
C951        C  0.23140354  0.83334766  0.58339084     0.77000
C952        C  0.10196017  0.83330826  0.58340894     0.76900
O953        O  0.26905869  0.96772188  0.74890192    -0.72200
O954        O  0.03239215  0.73099826  0.75093862    -0.72400
O955        O  0.31881675  0.68407516  0.70159774    -0.72300
O956        O  0.31646975  0.68172816  0.79826370    -0.72300
O957        O  0.01687506  0.98492010  0.79827477    -0.72300
O958        O  0.01445729  0.98255954  0.70160379    -0.72300
O959        O  0.06425672  0.69891992  0.74892436    -0.72200
O960        O  0.30093162  0.93565202  0.75092493    -0.72400
V961        V  0.31807693  0.68210682  0.74992875     1.35200
V962        V  0.01523357  0.98453408  0.74993731     1.35200
C963        C  0.26860241  0.93529677  0.74991211     0.77000
C964        C  0.06472021  0.73134763  0.74992893     0.77100
C965        C  0.33333045  0.00001588  0.68523797     0.77000
C966        C  0.33327503  0.99998281  0.81467456     0.76900
O967        O  0.31881001  0.85076013  0.70157760    -0.72200
O968        O  0.31642012  0.84840570  0.79825129    -0.72400
O969        O  0.03240318  0.89768989  0.75092130    -0.72300
O970        O  0.26905311  0.80103612  0.74891038    -0.72300
O971        O  0.30092094  0.76896063  0.75090469    -0.72300
O972        O  0.06427235  0.86561486  0.74891954    -0.72300
O973        O  0.01693503  0.81828742  0.79828274    -0.72200
O974        O  0.01451320  0.81586872  0.70161295    -0.72400
V975        V  0.31804560  0.84878741  0.74991169     1.35200
V976        V  0.01528878  0.81786903  0.74994638     1.35200
C977        C  0.33333573  0.83332746  0.68522837     0.77000
C978        C  0.33330288  0.83331715  0.81466518     0.77100
C979        C  0.06473001  0.89803993  0.74990940     0.77000
C980        C  0.26859096  0.76860754  0.74990693     0.76900
O981        O  0.13428708  0.93564177  0.75093346    -0.72200
O982        O  0.23089174  0.69891738  0.74891311    -0.72400
O983        O  0.18353706  0.98491095  0.79827823    -0.72300
O984        O  0.18119654  0.98254431  0.70160493    -0.72300
O985        O  0.15212903  0.68409276  0.70160273    -0.72300
O986        O  0.14974124  0.68169144  0.79827177    -0.72300
O987        O  0.19902241  0.73098997  0.75094474    -0.72200
O988        O  0.10242100  0.96771806  0.74888773    -0.72400
V989        V  0.18193749  0.98452405  0.74994103     1.35200
V990        V  0.15136964  0.68210158  0.74993548     1.35200
C991        C  0.10196150  0.93529282  0.74990388     0.77000
C992        C  0.23135222  0.73134485  0.74991913     0.77100
C993        C  0.16662962  0.99998015  0.81468178     0.77000
C994        C  0.16670075  0.99999708  0.68524175     0.76900
O995        O  0.13428887  0.76896310  0.75094944    -0.72200
O996        O  0.23092009  0.86561181  0.74892678    -0.72400
O997        O  0.18357033  0.81825481  0.79827493    -0.72300
O998        O  0.18117835  0.81586911  0.70160611    -0.72300
O999        O  0.15216553  0.85076311  0.70159974    -0.72300
O1000       O  0.14976492  0.84839111  0.79827398    -0.72300
O1001       O  0.19904025  0.89767511  0.75094057    -0.72200
O1002       O  0.10241377  0.80103051  0.74892538    -0.72400
V1003       V  0.18193918  0.81785601  0.74993907     1.35200
V1004       V  0.15139561  0.84878297  0.74993461     1.35200
C1005       C  0.10195719  0.76860648  0.74993224     0.77000
C1006       C  0.23137181  0.89803488  0.74992370     0.77100
C1007       C  0.16666917  0.83332416  0.81468635     0.77000
C1008       C  0.16667679  0.83331797  0.68524730     0.76900
O1009       O  0.63466564  0.26897071  0.24907349    -0.72200
O1010       O  0.63471054  0.03229324  0.25103465    -0.72400
O1011       O  0.63471240  0.31825518  0.20172243    -0.72300
O1012       O  0.63470092  0.31590433  0.29839523    -0.72300
O1013       O  0.36527967  0.01743381  0.29838166    -0.72300
O1014       O  0.36526771  0.01507410  0.20170983    -0.72300
O1015       O  0.36527414  0.06434056  0.24905249    -0.72200
O1016       O  0.36531557  0.30105356  0.25107854    -0.72400
V1017       V  0.63593229  0.31787336  0.25005985     1.35200
V1018       V  0.36404765  0.01545721  0.25004589     1.35200
C1019       C  0.33335129  0.26862798  0.25006153     0.77000
C1020       C  0.33329565  0.06468927  0.25007392     0.77100
C1021       C  0.66668700  0.33333833  0.18531532     0.77000
C1022       C  0.66664108  0.99998932  0.31474877     0.76900
O1023       O  0.36529572  0.23101137  0.24903698    -0.72200
O1024       O  0.36528319  0.13437031  0.25105479    -0.72400
O1025       O  0.36526091  0.18171552  0.20171072    -0.72300
O1026       O  0.36528849  0.18411257  0.29837771    -0.72300
O1027       O  0.63468743  0.14917396  0.29839464    -0.72300
O1028       O  0.63466251  0.15158921  0.20172171    -0.72300
O1029       O  0.63469688  0.10230532  0.24902892    -0.72200
O1030       O  0.63464255  0.19891620  0.25108787    -0.72400
V1031       V  0.36405046  0.18212075  0.25004541     1.35200
V1032       V  0.63590305  0.15117750  0.25005928     1.35200
C1033       C  0.33332293  0.23136937  0.25005687     0.77000
C1034       C  0.33331680  0.10194668  0.25006923     0.77100
C1035       C  0.33328464  0.16663934  0.18530911     0.77000
C1036       C  0.33333966  0.16667074  0.31473873     0.76900
O1037       O  0.46801684  0.26897466  0.24903082    -0.72200
O1038       O  0.46802957  0.03228294  0.25106594    -0.72400
O1039       O  0.46803741  0.31828170  0.20171323    -0.72300
O1040       O  0.46803278  0.31586782  0.29838273    -0.72300
O1041       O  0.53196681  0.01744004  0.29837885    -0.72300
O1042       O  0.53195350  0.01506527  0.20171232    -0.72300
O1043       O  0.53197077  0.06435119  0.24904356    -0.72200
O1044       O  0.53195809  0.30104001  0.25106062    -0.72400
V1045       V  0.46926081  0.31786604  0.25004872     1.35200
V1046       V  0.53073091  0.01545873  0.25004579     1.35200
C1047       C  0.49999067  0.26861769  0.25005346     0.77000
C1048       C  0.49999535  0.06470667  0.25005915     0.77100
C1049       C  0.50001070  0.33336101  0.18530691     0.77000
C1050       C  0.49998407  0.33331192  0.31474103     0.76900
O1051       O  0.53195593  0.18174154  0.20173123    -0.72200
O1052       O  0.53194979  0.18411849  0.29839874    -0.72400
O1053       O  0.53197703  0.13439168  0.25107169    -0.72300
O1054       O  0.53194739  0.23101401  0.24905622    -0.72300
O1055       O  0.46800605  0.19893399  0.25108194    -0.72300
O1056       O  0.46803546  0.10231064  0.24905582    -0.72300
O1057       O  0.46804562  0.14920419  0.29840364    -0.72200
O1058       O  0.46801463  0.15158775  0.20173496    -0.72400
V1059       V  0.53072600  0.18213478  0.25006614     1.35200
V1060       V  0.46925665  0.15119071  0.25007073     1.35200
C1061       C  0.49998498  0.16666721  0.18532246     0.77000
C1062       C  0.49999951  0.16665923  0.31475591     0.77100
C1063       C  0.50001513  0.10196380  0.25006423     0.77000
C1064       C  0.49996845  0.23136123  0.25006649     0.76900
O1065       O  0.34844987  0.03197980  0.46493325    -0.72200
O1066       O  0.35078036  0.03195824  0.36825656    -0.72400
O1067       O  0.63437363  0.03192400  0.41563314    -0.72300
O1068       O  0.39770754  0.03197902  0.41757498    -0.72300
O1069       O  0.36562286  0.30136306  0.41556539    -0.72300
O1070       O  0.60232380  0.30137162  0.41761277    -0.72300
O1071       O  0.64921690  0.30137036  0.36827261    -0.72200
O1072       O  0.65161011  0.30138285  0.46494114    -0.72400
V1073       V  0.34882112  0.03074613  0.41659451     1.35200
V1074       V  0.65120920  0.30260375  0.41660609     1.35200
C1075       C  0.33336856  0.00000735  0.48134361     0.77000
C1076       C  0.33333173  0.00000133  0.35190443     0.77100
C1077       C  0.60194905  0.99995874  0.41664603     0.77000
C1078       C  0.39805662  0.00000101  0.41655499     0.76900
O1079       O  0.36559584  0.13466546  0.41557450    -0.72200
O1080       O  0.60229443  0.13470458  0.41764294    -0.72400
O1081       O  0.64916294  0.13469416  0.36827644    -0.72300
O1082       O  0.65158448  0.13468676  0.46494664    -0.72300
O1083       O  0.34838792  0.19860402  0.46492033    -0.72300
O1084       O  0.35078359  0.19861262  0.36825394    -0.72300
O1085       O  0.63438069  0.19864587  0.41559116    -0.72200
O1086       O  0.39766992  0.19860783  0.41759502    -0.72400
V1087       V  0.65116709  0.13591772  0.41661187     1.35200
V1088       V  0.34878892  0.19738007  0.41658519     1.35200
C1089       C  0.39802128  0.16663131  0.41658142     0.77000
C1090       C  0.60195234  0.16668543  0.41661666     0.77100
C1091       C  0.33334139  0.16666359  0.35189422     0.77000
C1092       C  0.66665615  0.16665824  0.48135603     0.76900
O1093       O  0.43565082  0.30136314  0.41759599    -0.72200
O1094       O  0.53228629  0.30135696  0.41558581    -0.72400
O1095       O  0.48492983  0.30136592  0.46492943    -0.72300
O1096       O  0.48254590  0.30136470  0.36825867    -0.72300
O1097       O  0.51748925  0.03193634  0.36826102    -0.72300
O1098       O  0.51505130  0.03195654  0.46492851    -0.72300
O1099       O  0.56435108  0.03192606  0.41763731    -0.72200
O1100       O  0.46773950  0.03197620  0.41555416    -0.72400
V1101       V  0.48453561  0.30259411  0.41659186     1.35200
V1102       V  0.51547667  0.03071661  0.41659386     1.35200
C1103       C  0.43530873  0.00001582  0.41654911     0.77000
C1104       C  0.56469301  0.99994280  0.41664165     0.77100
C1105       C  0.49995088  0.99998705  0.48134264     0.77000
C1106       C  0.49998740  0.33331501  0.35189964     0.76900
O1107       O  0.43563871  0.13468574  0.41759679    -0.72200
O1108       O  0.53227899  0.13470157  0.41561373    -0.72400
O1109       O  0.48491392  0.13470451  0.46493655    -0.72300
O1110       O  0.48256095  0.13470788  0.36827040    -0.72300
O1111       O  0.51744345  0.19861505  0.36826581    -0.72300
O1112       O  0.51506092  0.19864688  0.46493117    -0.72300
O1113       O  0.56434676  0.19864513  0.41761451    -0.72200
O1114       O  0.46770204  0.19862846  0.41558185    -0.72400
V1115       V  0.48452988  0.13593195  0.41660325     1.35200
V1116       V  0.51545650  0.19740278  0.41659730     1.35200
C1117       C  0.43528016  0.16665870  0.41658367     0.77000
C1118       C  0.56470114  0.16666927  0.41661491     0.77100
C1119       C  0.49999042  0.16667794  0.48134315     0.77000
C1120       C  0.50000332  0.16666034  0.35191358     0.76900
O1121       O  0.36530874  0.01448695  0.03493465    -0.72200
O1122       O  0.36527217  0.01688891  0.13160400    -0.72400
O1123       O  0.36527824  0.30092469  0.08425286    -0.72300
O1124       O  0.36529548  0.06424058  0.08224986    -0.72300
O1125       O  0.63471875  0.03239649  0.08431442    -0.72300
O1126       O  0.63466485  0.26906418  0.08226660    -0.72300
O1127       O  0.63471184  0.31644426  0.13160989    -0.72200
O1128       O  0.63470446  0.31881628  0.03493603    -0.72400
V1129       V  0.36406197  0.01525417  0.08326931     1.35200
V1130       V  0.63593113  0.31806134  0.08327210     1.35200
C1131       C  0.66665369  0.33329411  0.01857606     0.77000
C1132       C  0.33334471  0.33332029  0.14801504     0.77100
C1133       C  0.33329722  0.26859787  0.08325607     0.77000
C1134       C  0.33332684  0.06469685  0.08324425     0.76900
O1135       O  0.36526042  0.18114506  0.03494176    -0.72200
O1136       O  0.36525242  0.18352977  0.13160793    -0.72400
O1137       O  0.36526986  0.13425772  0.08428144    -0.72300
O1138       O  0.36527246  0.23089330  0.08226550    -0.72300
O1139       O  0.63465432  0.19902368  0.08425581    -0.72300
O1140       O  0.63467872  0.10239559  0.08227039    -0.72300
O1141       O  0.63465911  0.14975996  0.13159752    -0.72200
O1142       O  0.63468067  0.15212328  0.03492144    -0.72400
V1143       V  0.36403120  0.18190650  0.08327396     1.35200
V1144       V  0.63589809  0.15137424  0.08325938     1.35200
C1145       C  0.66663558  0.16663353  0.01856749     0.77000
C1146       C  0.66663076  0.16666763  0.14800987     0.77100
C1147       C  0.33329668  0.10192842  0.08326101     0.77000
C1148       C  0.33330913  0.23135694  0.08325755     0.76900
O1149       O  0.46805717  0.31883346  0.03493393    -0.72200
O1150       O  0.46804353  0.31648693  0.13160141    -0.72400
O1151       O  0.46801873  0.03238569  0.08427712    -0.72300
O1152       O  0.46802370  0.26909501  0.08228164    -0.72300
O1153       O  0.53196539  0.30095199  0.08429352    -0.72300
O1154       O  0.53196106  0.06424745  0.08228443    -0.72300
O1155       O  0.53194861  0.01686448  0.13160488    -0.72200
O1156       O  0.53193027  0.01451096  0.03493659    -0.72400
V1157       V  0.46927695  0.31809104  0.08326623     1.35200
V1158       V  0.53071372  0.01525496  0.08327061     1.35200
C1159       C  0.50000903  0.33332765  0.01857935     0.77000
C1160       C  0.50001486  0.33337555  0.14801163     0.77100
C1161       C  0.49999866  0.06471318  0.08328184     0.77000
C1162       C  0.49998540  0.26862687  0.08328619     0.76900
O1163       O  0.53195765  0.18116911  0.03494441    -0.72200
O1164       O  0.53195758  0.18356976  0.13161891    -0.72400
O1165       O  0.53196056  0.13428119  0.08430106    -0.72300
O1166       O  0.53196852  0.23092608  0.08227260    -0.72300
O1167       O  0.46802713  0.19906024  0.08428592    -0.72300
O1168       O  0.46801990  0.10241753  0.08227068    -0.72300
O1169       O  0.46801687  0.14977404  0.13161255    -0.72200
O1170       O  0.46805432  0.15217236  0.03493714    -0.72400
V1171       V  0.53072985  0.18193742  0.08328275     1.35200
V1172       V  0.46926123  0.15140627  0.08327507     1.35200
C1173       C  0.50000805  0.16666609  0.01858226     0.77000
C1174       C  0.49998445  0.16667051  0.14802669     0.77100
C1175       C  0.49998260  0.10195332  0.08328468     0.77000
C1176       C  0.50000402  0.23138854  0.08328115     0.76900
O1177       O  0.35080331  0.31885051  0.96507480    -0.72200
O1178       O  0.34844537  0.31641527  0.86840347    -0.72400
O1179       O  0.39767255  0.03238191  0.91567864    -0.72300
O1180       O  0.63440615  0.26906148  0.91771564    -0.72300
O1181       O  0.60232326  0.30092132  0.91569754    -0.72300
O1182       O  0.36559158  0.06424326  0.91770537    -0.72300
O1183       O  0.65158262  0.01688488  0.86837940    -0.72200
O1184       O  0.64918005  0.01451685  0.96505337    -0.72400
V1185       V  0.34882978  0.31806550  0.91674067     1.35200
V1186       V  0.65117385  0.01526898  0.91671559     1.35200
C1187       C  0.66665328  0.33329313  0.98141452     0.77000
C1188       C  0.66669111  0.33334000  0.85197634     0.77100
C1189       C  0.39802032  0.06470883  0.91669598     0.77000
C1190       C  0.60197634  0.26859535  0.91670767     0.76900
O1191       O  0.35076422  0.15212684  0.96507057    -0.72200
O1192       O  0.34842771  0.14978303  0.86839898    -0.72400
O1193       O  0.39768387  0.19903699  0.91575251    -0.72300
O1194       O  0.63437936  0.10242010  0.91769414    -0.72300
O1195       O  0.60232080  0.13430496  0.91569810    -0.72300
O1196       O  0.36560818  0.23090486  0.91776878    -0.72300
O1197       O  0.65162166  0.18358828  0.86837745    -0.72200
O1198       O  0.64922567  0.18117797  0.96504720    -0.72400
V1199       V  0.34880088  0.15138594  0.91673635     1.35200
V1200       V  0.65121769  0.18195006  0.91671233     1.35200
C1201       C  0.33331361  0.16662968  0.98142518     0.77000
C1202       C  0.66670729  0.16670167  0.85196757     0.77100
C1203       C  0.39803302  0.23136401  0.91676990     0.77000
C1204       C  0.60195693  0.10196962  0.91670376     0.76900
O1205       O  0.51746790  0.31883578  0.96506765    -0.72200
O1206       O  0.51503105  0.31637982  0.86840150    -0.72400
O1207       O  0.56433877  0.03240445  0.91573133    -0.72300
O1208       O  0.46771151  0.26905664  0.91777740    -0.72300
O1209       O  0.43563507  0.30092294  0.91574170    -0.72300
O1210       O  0.53226367  0.06427272  0.91772522    -0.72300
O1211       O  0.48489473  0.01689753  0.86839408    -0.72200
O1212       O  0.48253899  0.01452221  0.96506607    -0.72400
V1213       V  0.51545627  0.31804254  0.91673681     1.35200
V1214       V  0.48451269  0.01527706  0.91673135     1.35200
C1215       C  0.50000837  0.33332803  0.98142263     0.77000
C1216       C  0.49996192  0.33328019  0.85198916     0.77100
C1217       C  0.56469180  0.06473450  0.91672220     0.77000
C1218       C  0.43528619  0.26859637  0.91676937     0.76900
O1219       O  0.48256189  0.18116822  0.96505779    -0.72200
O1220       O  0.48491774  0.18356039  0.86838187    -0.72400
O1221       O  0.43563834  0.13428055  0.91571215    -0.72300
O1222       O  0.53229300  0.23090888  0.91772187    -0.72300
O1223       O  0.56435323  0.19902667  0.91569983    -0.72300
O1224       O  0.46770211  0.10240124  0.91771830    -0.72300
O1225       O  0.51505462  0.14975562  0.86837526    -0.72200
O1226       O  0.51744663  0.15214679  0.96505417    -0.72400
V1227       V  0.48453424  0.18192944  0.91672029     1.35200
V1228       V  0.51545704  0.15138216  0.91671372     1.35200
C1229       C  0.50000830  0.16666127  0.98141462     0.77000
C1230       C  0.49998449  0.16665910  0.85196645     0.77100
C1231       C  0.43527912  0.10194698  0.91670970     0.77000
C1232       C  0.56471515  0.23136033  0.91671041     0.76900
O1233       O  0.35021947  0.03197155  0.53505211    -0.72200
O1234       O  0.34780248  0.03195728  0.63171919    -0.72400
O1235       O  0.39756825  0.03198693  0.58440895    -0.72300
O1236       O  0.63427080  0.03196905  0.58233296    -0.72300
O1237       O  0.60240599  0.30134962  0.58438685    -0.72300
O1238       O  0.36570686  0.30137030  0.58240751    -0.72300
O1239       O  0.65214923  0.30135330  0.63171982    -0.72200
O1240       O  0.64978157  0.30137668  0.53504845    -0.72400
V1241       V  0.34857367  0.03073435  0.58338662     1.35200
V1242       V  0.65139551  0.30259088  0.58338463     1.35200
C1243       C  0.33334297  0.00000126  0.51864017     0.77000
C1244       C  0.33329164  0.33333008  0.64808581     0.77100
C1245       C  0.39803598  0.00002431  0.58341194     0.77000
C1246       C  0.60194065  0.99999304  0.58334539     0.76900
O1247       O  0.39759741  0.19864000  0.58437693    -0.72200
O1248       O  0.63426917  0.19861240  0.58238917    -0.72400
O1249       O  0.34784862  0.19861164  0.63171613    -0.72300
O1250       O  0.35022058  0.19861109  0.53503551    -0.72300
O1251       O  0.64976973  0.13468316  0.53505984    -0.72300
O1252       O  0.65215160  0.13469221  0.63172945    -0.72300
O1253       O  0.60240343  0.13466906  0.58439726    -0.72200
O1254       O  0.36573838  0.13469768  0.58235686    -0.72400
V1255       V  0.34860572  0.19738904  0.58337575     1.35200
V1256       V  0.65139145  0.13591338  0.58339536     1.35200
C1257       C  0.39806357  0.16667806  0.58337083     0.77000
C1258       C  0.60194332  0.16663461  0.58339075     0.77100
C1259       C  0.66665204  0.16664537  0.64808472     0.77000
C1260       C  0.66666027  0.16665596  0.51865121     0.76900
O1261       O  0.51684567  0.03196938  0.53504775    -0.72200
O1262       O  0.51451660  0.03195933  0.63172440    -0.72400
O1263       O  0.56424060  0.03198061  0.58436170    -0.72300
O1264       O  0.46759947  0.03197871  0.58240639    -0.72300
O1265       O  0.43573345  0.30135358  0.58440369    -0.72300
O1266       O  0.53237738  0.30135941  0.58237341    -0.72300
O1267       O  0.48549108  0.30136848  0.63172581    -0.72200
O1268       O  0.48309350  0.30136405  0.53504977    -0.72400
V1269       V  0.51525079  0.03074071  0.58338670     1.35200
V1270       V  0.48472300  0.30259258  0.58338898     1.35200
C1271       C  0.49999247  0.33333637  0.51863957     0.77000
C1272       C  0.49999464  0.33331941  0.64808563     0.77100
C1273       C  0.56470240  0.00001573  0.58334920     0.77000
C1274       C  0.43527142  0.00000261  0.58342012     0.76900
O1275       O  0.51689778  0.19864655  0.53504743    -0.72200
O1276       O  0.51452690  0.19861161  0.63171516    -0.72400
O1277       O  0.56425983  0.19862988  0.58437734    -0.72300
O1278       O  0.46762861  0.19863929  0.58238372    -0.72300
O1279       O  0.43575865  0.13469563  0.58437757    -0.72300
O1280       O  0.53238533  0.13468664  0.58236807    -0.72300
O1281       O  0.48550064  0.13470448  0.63170927    -0.72200
O1282       O  0.48311459  0.13470385  0.53504173    -0.72400
V1283       V  0.51527900  0.19740064  0.58338194     1.35200
V1284       V  0.48474022  0.13592976  0.58337524     1.35200
C1285       C  0.50000039  0.16667702  0.51863524     0.77000
C1286       C  0.50001549  0.16665654  0.64806770     0.77100
C1287       C  0.56471403  0.16666102  0.58337918     0.77000
C1288       C  0.43529986  0.16666151  0.58337901     0.76900
O1289       O  0.60242013  0.30103616  0.74893743    -0.72200
O1290       O  0.36570018  0.06436223  0.75094469    -0.72400
O1291       O  0.65213651  0.01746511  0.70161328    -0.72300
O1292       O  0.64977486  0.01506676  0.79827892    -0.72300
O1293       O  0.35026992  0.31824347  0.79826592    -0.72300
O1294       O  0.34779523  0.31585596  0.70159223    -0.72300
O1295       O  0.39756648  0.03228509  0.74894061    -0.72200
O1296       O  0.63428892  0.26896145  0.75094419    -0.72400
V1297       V  0.65138981  0.01546930  0.74994623     1.35200
V1298       V  0.34860130  0.31784379  0.74992803     1.35200
C1299       C  0.60196083  0.26860949  0.74993510     0.77000
C1300       C  0.39802916  0.06471184  0.74993649     0.77100
C1301       C  0.66665211  0.33329939  0.68524324     0.77000
C1302       C  0.66668668  0.33333541  0.81468046     0.76900
O1303       O  0.65217358  0.18412218  0.70159622    -0.72200
O1304       O  0.64979488  0.18176281  0.79826433    -0.72400
O1305       O  0.36572122  0.23100922  0.75093297    -0.72300
O1306       O  0.60242099  0.13440173  0.74892731    -0.72300
O1307       O  0.63428222  0.10232136  0.75096907    -0.72300
O1308       O  0.39758674  0.19893047  0.74893376    -0.72300
O1309       O  0.35023408  0.15159056  0.79828166    -0.72200
O1310       O  0.34784100  0.14920267  0.70160626    -0.72400
V1311       V  0.65141384  0.18214723  0.74992926     1.35200
V1312       V  0.34860171  0.15118792  0.74994424     1.35200
C1313       C  0.66665432  0.16664972  0.68524272     0.77000
C1314       C  0.66670574  0.16670265  0.81467370     0.77100
C1315       C  0.39804714  0.23135582  0.74992877     0.77000
C1316       C  0.60195470  0.10197253  0.74994734     0.76900
O1317       O  0.46760534  0.26895457  0.75092965    -0.72200
O1318       O  0.56425233  0.03228519  0.74895920    -0.72400
O1319       O  0.51685943  0.31820416  0.79828119    -0.72300
O1320       O  0.51451204  0.31587744  0.70160542    -0.72300
O1321       O  0.48549021  0.01743742  0.70159554    -0.72300
O1322       O  0.48310311  0.01509713  0.79826878    -0.72300
O1323       O  0.53238417  0.06436140  0.75092965    -0.72200
O1324       O  0.43573835  0.30103219  0.74893668    -0.72400
V1325       V  0.51525598  0.31783807  0.74994281     1.35200
V1326       V  0.48472858  0.01547161  0.74993084     1.35200
C1327       C  0.43527887  0.26860722  0.74992856     0.77000
C1328       C  0.56471437  0.06471336  0.74994492     0.77100
C1329       C  0.49996756  0.33328458  0.81469230     0.77000
C1330       C  0.49999759  0.33331800  0.68524972     0.76900
O1331       O  0.46759352  0.10230678  0.75093314    -0.72200
O1332       O  0.56425385  0.19892348  0.74892146    -0.72400
O1333       O  0.51687603  0.15157835  0.79826027    -0.72300
O1334       O  0.51450136  0.14919723  0.70158910    -0.72300
O1335       O  0.48551346  0.18411458  0.70157882    -0.72300
O1336       O  0.48310112  0.18174633  0.79825207    -0.72300
O1337       O  0.53239918  0.23101228  0.75092568    -0.72200
O1338       O  0.43574150  0.13439713  0.74890536    -0.72400
V1339       V  0.51525653  0.15118334  0.74992410     1.35200
V1340       V  0.48473855  0.18213583  0.74991362     1.35200
C1341       C  0.43526947  0.10196611  0.74992294     0.77000
C1342       C  0.56472276  0.23135496  0.74992553     0.77100
C1343       C  0.49998588  0.16666175  0.81466804     0.77000
C1344       C  0.50001023  0.16665510  0.68522813     0.76900
O1345       O  0.63472485  0.60230455  0.24905739    -0.72200
O1346       O  0.63472252  0.36563530  0.25104641    -0.72400
O1347       O  0.63469436  0.65156292  0.20172614    -0.72300
O1348       O  0.63471515  0.64919796  0.29839759    -0.72300
O1349       O  0.36527438  0.35078587  0.29839359    -0.72300
O1350       O  0.36531962  0.34840186  0.20172430    -0.72300
O1351       O  0.36529391  0.39768197  0.24904627    -0.72200
O1352       O  0.36529149  0.63436211  0.25107730    -0.72400
V1353       V  0.63592873  0.65117491  0.25006304     1.35200
V1354       V  0.36407050  0.34879967  0.25006137     1.35200
C1355       C  0.33332440  0.60194032  0.25007565     0.77000
C1356       C  0.33331437  0.39802846  0.25006185     0.77100
C1357       C  0.66666664  0.66666047  0.18531549     0.77000
C1358       C  0.66665411  0.33331781  0.31475359     0.76900
O1359       O  0.36527721  0.56433552  0.24903549    -0.72200
O1360       O  0.36529215  0.46770930  0.25106929    -0.72400
O1361       O  0.36525035  0.51503369  0.20171838    -0.72300
O1362       O  0.36530061  0.51747013  0.29838903    -0.72300
O1363       O  0.63477471  0.48258475  0.29839537    -0.72300
O1364       O  0.63472532  0.48491901  0.20172656    -0.72300
O1365       O  0.63475040  0.43566584  0.24906588    -0.72200
O1366       O  0.63473618  0.53229240  0.25105858    -0.72400
V1367       V  0.36404796  0.51545436  0.25005411     1.35200
V1368       V  0.63597897  0.48454798  0.25006243     1.35200
C1369       C  0.33330045  0.56468546  0.25006365     0.77000
C1370       C  0.33332853  0.43528216  0.25007581     0.77100
C1371       C  0.33327176  0.49995243  0.18531792     0.77000
C1372       C  0.33335754  0.50003620  0.31475950     0.76900
O1373       O  0.46802379  0.60228816  0.24909445    -0.72200
O1374       O  0.46803231  0.36561669  0.25106526    -0.72400
O1375       O  0.46800078  0.65154402  0.20174887    -0.72300
O1376       O  0.46804602  0.64921273  0.29841660    -0.72300
O1377       O  0.53193825  0.35076139  0.29838952    -0.72300
O1378       O  0.53197807  0.34841727  0.20172193    -0.72300
O1379       O  0.53197486  0.39768198  0.24905654    -0.72200
O1380       O  0.53196719  0.63437127  0.25107084    -0.72400
V1381       V  0.46924797  0.65117040  0.25008603     1.35200
V1382       V  0.53073049  0.34879262  0.25005787     1.35200
C1383       C  0.50000448  0.60194281  0.25008808     0.77000
C1384       C  0.50000125  0.39803795  0.25006234     0.77100
C1385       C  0.49997142  0.66664016  0.18533600     0.77000
C1386       C  0.50000457  0.66665992  0.31476239     0.76900
O1387       O  0.53200945  0.51510966  0.20173642    -0.72200
O1388       O  0.53193804  0.51739897  0.29841020    -0.72400
O1389       O  0.53199065  0.46771720  0.25105998    -0.72300
O1390       O  0.53197005  0.56434374  0.24909755    -0.72300
O1391       O  0.46802647  0.53226151  0.25106673    -0.72300
O1392       O  0.46804850  0.43564048  0.24904498    -0.72300
O1393       O  0.46803213  0.48251709  0.29839213    -0.72200
O1394       O  0.46806789  0.48492850  0.20171665    -0.72400
V1395       V  0.53074508  0.51546105  0.25007670     1.35200
V1396       V  0.46927541  0.48451943  0.25005563     1.35200
C1397       C  0.50004574  0.50002274  0.18531357     0.77000
C1398       C  0.49997992  0.49994564  0.31475689     0.77100
C1399       C  0.50002543  0.43529205  0.25005717     0.77000
C1400       C  0.49998934  0.56468946  0.25008814     0.76900
O1401       O  0.34844860  0.36532718  0.46492652    -0.72200
O1402       O  0.35078088  0.36528793  0.36825388    -0.72400
O1403       O  0.63439591  0.36531345  0.41558591    -0.72300
O1404       O  0.39770277  0.36530576  0.41757987    -0.72300
O1405       O  0.36561848  0.63468523  0.41560495    -0.72300
O1406       O  0.60232952  0.63472682  0.41760168    -0.72300
O1407       O  0.64922242  0.63471837  0.36826796    -0.72200
O1408       O  0.65159594  0.63471717  0.46493387    -0.72400
V1409       V  0.34882097  0.36408033  0.41658798     1.35200
V1410       V  0.65120814  0.63594775  0.41659926     1.35200
C1411       C  0.33337616  0.33335888  0.48134195     0.77000
C1412       C  0.33331791  0.33333273  0.35190312     0.77100
C1413       C  0.60197084  0.33334811  0.41659235     0.77000
C1414       C  0.39804899  0.33332537  0.41656867     0.76900
O1415       O  0.36564159  0.46803066  0.41559627    -0.72200
O1416       O  0.60234549  0.46800823  0.41758758    -0.72400
O1417       O  0.64928305  0.46806202  0.36825468    -0.72300
O1418       O  0.65162115  0.46801214  0.46492928    -0.72300
O1419       O  0.34843847  0.53194605  0.46496158    -0.72300
O1420       O  0.35081716  0.53198879  0.36828627    -0.72300
O1421       O  0.63440517  0.53195099  0.41558902    -0.72200
O1422       O  0.39771889  0.53197235  0.41762503    -0.72400
V1423       V  0.65124247  0.46926071  0.41659033     1.35200
V1424       V  0.34883264  0.53074280  0.41662440     1.35200
C1425       C  0.39806814  0.49999365  0.41660992     0.77000
C1426       C  0.60198252  0.49997959  0.41658433     0.77100
C1427       C  0.33337242  0.50004061  0.35192140     0.77000
C1428       C  0.66668920  0.49997935  0.48134694     0.76900
O1429       O  0.43565850  0.63469826  0.41760209    -0.72200
O1430       O  0.53230289  0.63471324  0.41558588    -0.72400
O1431       O  0.48493756  0.63469888  0.46492828    -0.72300
O1432       O  0.48256850  0.63471932  0.36826858    -0.72300
O1433       O  0.51744189  0.36527073  0.36825061    -0.72300
O1434       O  0.51508111  0.36530735  0.46492407    -0.72300
O1435       O  0.56435745  0.36529969  0.41759015    -0.72200
O1436       O  0.46772615  0.36530554  0.41557445    -0.72400
V1437       V  0.48454911  0.63593950  0.41659547     1.35200
V1438       V  0.51547056  0.36406416  0.41658431     1.35200
C1439       C  0.43530159  0.33334186  0.41657608     0.77000
C1440       C  0.56471114  0.33332322  0.41658596     0.77100
C1441       C  0.50000219  0.33333793  0.48133937     0.77000
C1442       C  0.50001367  0.66667052  0.35191442     0.76900
O1443       O  0.43566551  0.46802493  0.41763343    -0.72200
O1444       O  0.53228997  0.46798856  0.41560411    -0.72400
O1445       O  0.48495483  0.46803490  0.46495482    -0.72300
O1446       O  0.48253839  0.46799708  0.36828237    -0.72300
O1447       O  0.51744321  0.53190224  0.36826391    -0.72300
O1448       O  0.51512367  0.53197731  0.46493368    -0.72300
O1449       O  0.56437099  0.53193175  0.41758943    -0.72200
O1450       O  0.46775065  0.53196647  0.41560121    -0.72400
V1451       V  0.48454452  0.46924196  0.41661817     1.35200
V1452       V  0.51549092  0.53071181  0.41659634     1.35200
C1453       C  0.43532144  0.50000610  0.41661393     0.77000
C1454       C  0.56472001  0.49995328  0.41658925     0.77100
C1455       C  0.50003596  0.50001282  0.48135559     0.77000
C1456       C  0.49998081  0.49994496  0.35191748     0.76900
O1457       O  0.36526353  0.34783645  0.03493234    -0.72200
O1458       O  0.36531045  0.35020445  0.13159840    -0.72400
O1459       O  0.36526979  0.63425846  0.08427115    -0.72300
O1460       O  0.36529224  0.39757626  0.08227380    -0.72300
O1461       O  0.63471556  0.36571991  0.08427778    -0.72300
O1462       O  0.63471018  0.60239473  0.08229752    -0.72300
O1463       O  0.63469576  0.64977443  0.13160900    -0.72200
O1464       O  0.63471114  0.65209875  0.03493618    -0.72400
V1465       V  0.36405443  0.34858567  0.08326341     1.35200
V1466       V  0.63592866  0.65137118  0.08327182     1.35200
C1467       C  0.66666684  0.66663041  0.01858175     0.77000
C1468       C  0.33330977  0.66663500  0.14802616     0.77100
C1469       C  0.33328976  0.60193393  0.08326149     0.77000
C1470       C  0.33332465  0.39803589  0.08327305     0.76900
O1471       O  0.36527594  0.51450596  0.03494584    -0.72200
O1472       O  0.36524409  0.51686012  0.13161563    -0.72400
O1473       O  0.36526996  0.46759935  0.08428556    -0.72300
O1474       O  0.36527168  0.56423631  0.08227681    -0.72300
O1475       O  0.63472674  0.53238235  0.08429356    -0.72300
O1476       O  0.63471123  0.43573844  0.08224234    -0.72300
O1477       O  0.63471468  0.48308052  0.13160381    -0.72200
O1478       O  0.63473529  0.48550550  0.03493505    -0.72400
V1479       V  0.36403307  0.51525044  0.08327997     1.35200
V1480       V  0.63595254  0.48472604  0.08326734     1.35200
C1481       C  0.66668548  0.49998817  0.01857838     0.77000
C1482       C  0.66668315  0.49998701  0.14801365     0.77100
C1483       C  0.33329694  0.43527020  0.08326641     0.77000
C1484       C  0.33330668  0.56469720  0.08326756     0.76900
O1485       O  0.46807472  0.65214810  0.03494785    -0.72200
O1486       O  0.46801499  0.64977303  0.13162173    -0.72400
O1487       O  0.46805791  0.36575034  0.08425060    -0.72300
O1488       O  0.46804422  0.60241434  0.08229860    -0.72300
O1489       O  0.53198685  0.63428948  0.08430088    -0.72300
O1490       O  0.53199979  0.39760507  0.08223436    -0.72300
O1491       O  0.53198522  0.35026273  0.13160060    -0.72200
O1492       O  0.53196171  0.34782560  0.03493334    -0.72400
V1493       V  0.46927462  0.65139581  0.08328483     1.35200
V1494       V  0.53074649  0.34861178  0.08326468     1.35200
C1495       C  0.50003148  0.66667090  0.01859602     0.77000
C1496       C  0.49997944  0.66665113  0.14804124     0.77100
C1497       C  0.50003857  0.39807327  0.08323451     0.77000
C1498       C  0.50001321  0.60196074  0.08329450     0.76900
O1499       O  0.53196566  0.51451751  0.03491607    -0.72200
O1500       O  0.53201940  0.51692305  0.13159499    -0.72400
O1501       O  0.53200060  0.46763581  0.08425392    -0.72300
O1502       O  0.53200576  0.56427383  0.08225131    -0.72300
O1503       O  0.46806508  0.53240453  0.08430020    -0.72300
O1504       O  0.46805870  0.43577111  0.08223746    -0.72300
O1505       O  0.46807963  0.48311603  0.13160425    -0.72200
O1506       O  0.46806225  0.48553135  0.03493259    -0.72400
V1507       V  0.53076738  0.51528818  0.08325302     1.35200
V1508       V  0.46929840  0.48475556  0.08326743     1.35200
C1509       C  0.50000771  0.50002231  0.01856779     0.77000
C1510       C  0.50005181  0.50002238  0.14801271     0.77100
C1511       C  0.50002307  0.43530956  0.08323658     0.77000
C1512       C  0.50003977  0.56473142  0.08328093     0.76900
O1513       O  0.35075855  0.65215976  0.96506867    -0.72200
O1514       O  0.34843248  0.64976665  0.86839535    -0.72400
O1515       O  0.39770382  0.36573529  0.91572196    -0.72300
O1516       O  0.63439073  0.60240487  0.91772535    -0.72300
O1517       O  0.60233225  0.63428983  0.91571174    -0.72300
O1518       O  0.36560618  0.39758043  0.91773677    -0.72300
O1519       O  0.65160992  0.35022987  0.86838883    -0.72200
O1520       O  0.64919764  0.34779050  0.96505929    -0.72400
V1521       V  0.34879902  0.65139679  0.91673350     1.35200
V1522       V  0.65119915  0.34857990  0.91672530     1.35200
C1523       C  0.66667082  0.66663346  0.98142167     0.77000
C1524       C  0.66669503  0.66667796  0.85198507     0.77100
C1525       C  0.39803991  0.39805790  0.91672645     0.77000
C1526       C  0.60197010  0.60195670  0.91671968     0.76900
O1527       O  0.35078760  0.48549971  0.96506850    -0.72200
O1528       O  0.34840544  0.48307201  0.86839599    -0.72400
O1529       O  0.39769143  0.53237207  0.91571654    -0.72300
O1530       O  0.63437747  0.43572640  0.91772022    -0.72300
O1531       O  0.60230378  0.46759690  0.91573928    -0.72300
O1532       O  0.36561833  0.56424272  0.91770441    -0.72300
O1533       O  0.65156449  0.51687375  0.86839914    -0.72200
O1534       O  0.64923333  0.51449710  0.96506920    -0.72400
V1535       V  0.34880373  0.48471851  0.91673340     1.35200
V1536       V  0.65119286  0.51525180  0.91673578     1.35200
C1537       C  0.33334553  0.50001562  0.98141822     0.77000
C1538       C  0.66664801  0.49998824  0.85198385     0.77100
C1539       C  0.39804541  0.56470278  0.91671476     0.77000
C1540       C  0.60195061  0.43526630  0.91672787     0.76900
O1541       O  0.51747048  0.65215902  0.96506678    -0.72200
O1542       O  0.51509544  0.64977489  0.86838676    -0.72400
O1543       O  0.56434033  0.36569838  0.91569857    -0.72300
O1544       O  0.46773542  0.60240409  0.91772776    -0.72300
O1545       O  0.43565833  0.63427011  0.91572938    -0.72300
O1546       O  0.53226481  0.39756483  0.91773428    -0.72300
O1547       O  0.48489891  0.35018955  0.86839927    -0.72200
O1548       O  0.48254561  0.34781886  0.96506886    -0.72400
V1549       V  0.51548433  0.65139726  0.91672701     1.35200
V1550       V  0.48451789  0.34857472  0.91673639     1.35200
C1551       C  0.50003177  0.66667181  0.98142769     0.77000
C1552       C  0.50001191  0.66666290  0.85197418     0.77100
C1553       C  0.56469203  0.39802723  0.91671990     0.77000
C1554       C  0.43530712  0.60194091  0.91672533     0.76900
O1555       O  0.48255842  0.51453454  0.96505209    -0.72200
O1556       O  0.48490817  0.51691710  0.86837950    -0.72400
O1557       O  0.43563801  0.46763275  0.91571813    -0.72300
O1558       O  0.53228278  0.56427746  0.91771385    -0.72300
O1559       O  0.56434843  0.53239913  0.91571792    -0.72300
O1560       O  0.46771765  0.43576817  0.91770142    -0.72300
O1561       O  0.51508224  0.48314749  0.86837726    -0.72200
O1562       O  0.51742977  0.48549791  0.96504621    -0.72400
V1563       V  0.48452785  0.51529108  0.91671670     1.35200
V1564       V  0.51546172  0.48475378  0.91671142     1.35200
C1565       C  0.49999656  0.50001641  0.98140532     0.77000
C1566       C  0.49999641  0.50003381  0.85196805     0.77100
C1567       C  0.43529013  0.43530373  0.91671551     0.77000
C1568       C  0.56470620  0.56473007  0.91671852     0.76900
O1569       O  0.35023551  0.36532674  0.53505779    -0.72200
O1570       O  0.34781414  0.36528752  0.63173396    -0.72400
O1571       O  0.39757793  0.36531293  0.58441033    -0.72300
O1572       O  0.63427196  0.36529204  0.58237713    -0.72300
O1573       O  0.60239795  0.63466946  0.58438100    -0.72300
O1574       O  0.36571161  0.63469005  0.58237877    -0.72300
O1575       O  0.65213363  0.63468019  0.63172535    -0.72200
O1576       O  0.64977759  0.63469797  0.53504737    -0.72400
V1577       V  0.34859196  0.36407956  0.58339719     1.35200
V1578       V  0.65138764  0.63591282  0.58338697     1.35200
C1579       C  0.33336128  0.33335790  0.51864107     0.77000
C1580       C  0.33332295  0.66664300  0.64808218     0.77100
C1581       C  0.39803688  0.33334581  0.58341238     0.77000
C1582       C  0.60194381  0.33331516  0.58338330     0.76900
O1583       O  0.39760266  0.53197199  0.58442703    -0.72200
O1584       O  0.63430165  0.53195672  0.58237973    -0.72400
O1585       O  0.34783382  0.53197579  0.63172734    -0.72300
O1586       O  0.35025113  0.53193509  0.53506203    -0.72300
O1587       O  0.64978605  0.46800333  0.53505492    -0.72300
O1588       O  0.65214217  0.46801059  0.63172950    -0.72300
O1589       O  0.60242075  0.46801369  0.58438352    -0.72200
O1590       O  0.36574215  0.46802786  0.58245629    -0.72400
V1591       V  0.34860957  0.53072475  0.58339488     1.35200
V1592       V  0.65139910  0.46923520  0.58339304     1.35200
C1593       C  0.39806838  0.50000780  0.58344871     0.77000
C1594       C  0.60196921  0.49998374  0.58338099     0.77100
C1595       C  0.66664966  0.49996225  0.64808806     0.77000
C1596       C  0.66668719  0.49997536  0.51864552     0.76900
O1597       O  0.51688366  0.36530523  0.53505493    -0.72200
O1598       O  0.51449374  0.36527346  0.63173093    -0.72400
O1599       O  0.56424393  0.36530117  0.58439562    -0.72300
O1600       O  0.46760135  0.36529577  0.58239282    -0.72300
O1601       O  0.43573497  0.63467991  0.58438292    -0.72300
O1602       O  0.53237277  0.63468024  0.58237598    -0.72300
O1603       O  0.48548135  0.63469580  0.63171337    -0.72200
O1604       O  0.48310017  0.63468626  0.53504261    -0.72400
V1605       V  0.51525532  0.36406200  0.58339442     1.35200
V1606       V  0.48472161  0.63591694  0.58337933     1.35200
C1607       C  0.49998883  0.66666012  0.51863499     0.77000
C1608       C  0.49999862  0.66664927  0.64806985     0.77100
C1609       C  0.56470570  0.33333565  0.58338493     0.77000
C1610       C  0.43527220  0.33331952  0.58340613     0.76900
O1611       O  0.51690758  0.53198824  0.53506936    -0.72200
O1612       O  0.51453129  0.53192563  0.63174181    -0.72400
O1613       O  0.56427724  0.53197695  0.58439658    -0.72300
O1614       O  0.46763248  0.53196439  0.58242657    -0.72300
O1615       O  0.43576843  0.46802119  0.58442054    -0.72300
O1616       O  0.53241096  0.46803504  0.58236455    -0.72300
O1617       O  0.48552775  0.46801952  0.63172302    -0.72200
O1618       O  0.48312437  0.46804621  0.53505819    -0.72400
V1619       V  0.51528713  0.53073286  0.58340904     1.35200
V1620       V  0.48475740  0.46926258  0.58339183     1.35200
C1621       C  0.50002294  0.50002049  0.51865251     0.77000
C1622       C  0.50002876  0.49996578  0.64808671     0.77100
C1623       C  0.56473840  0.50001226  0.58338021     0.77000
C1624       C  0.43530522  0.49998632  0.58343836     0.76900
O1625       O  0.60241461  0.63438106  0.74893677    -0.72200
O1626       O  0.36572015  0.39766649  0.75096920    -0.72400
O1627       O  0.65215155  0.35075049  0.70159996    -0.72300
O1628       O  0.64978998  0.34840912  0.79826895    -0.72300
O1629       O  0.35023149  0.65154652  0.79826203    -0.72300
O1630       O  0.34784934  0.64919926  0.70158824    -0.72300
O1631       O  0.39758782  0.36559364  0.74889943    -0.72200
O1632       O  0.63427790  0.60230159  0.75095846    -0.72400
V1633       V  0.65140456  0.34878500  0.74993303     1.35200
V1634       V  0.34860819  0.65116690  0.74992236     1.35200
C1635       C  0.60195112  0.60195294  0.74993861     0.77000
C1636       C  0.39804889  0.39801975  0.74993305     0.77100
C1637       C  0.66665318  0.66663485  0.68524981     0.77000
C1638       C  0.66668646  0.66667350  0.81468938     0.76900
O1639       O  0.65214070  0.51741391  0.70160282    -0.72200
O1640       O  0.64975993  0.51507025  0.79827473    -0.72400
O1641       O  0.36571863  0.56435846  0.75096444    -0.72300
O1642       O  0.60239652  0.46769884  0.74894324    -0.72300
O1643       O  0.63426499  0.43562444  0.75096143    -0.72300
O1644       O  0.39758293  0.53228014  0.74894266    -0.72300
O1645       O  0.35021208  0.48488858  0.79826706    -0.72200
O1646       O  0.34784155  0.48259088  0.70159844    -0.72400
V1647       V  0.65138545  0.51544896  0.74993805     1.35200
V1648       V  0.34859476  0.48453373  0.74993032     1.35200
C1649       C  0.66664389  0.49996154  0.68525053     0.77000
C1650       C  0.66664928  0.49999070  0.81468869     0.77100
C1651       C  0.39804666  0.56470779  0.74994732     0.77000
C1652       C  0.60193643  0.43527215  0.74995303     0.76900
O1653       O  0.46761361  0.60230688  0.75094399    -0.72200
O1654       O  0.56424339  0.36558698  0.74895889    -0.72400
O1655       O  0.51691573  0.65159562  0.79825931    -0.72300
O1656       O  0.51449555  0.64919116  0.70158544    -0.72300
O1657       O  0.48548495  0.35075761  0.70160822    -0.72300
O1658       O  0.48309055  0.34837856  0.79828076    -0.72300
O1659       O  0.53237347  0.39766093  0.75095434    -0.72200
O1660       O  0.43575525  0.63439086  0.74891489    -0.72400
V1661       V  0.51527303  0.65118789  0.74991998     1.35200
V1662       V  0.48472253  0.34877571  0.74994398     1.35200
C1663       C  0.43528762  0.60196161  0.74993362     0.77000
C1664       C  0.56470232  0.39801328  0.74995542     0.77100
C1665       C  0.50001645  0.66666739  0.81467234     0.77000
C1666       C  0.50000221  0.66665024  0.68522952     0.76900
O1667       O  0.46761478  0.43563252  0.75096257    -0.72200
O1668       O  0.56425487  0.53226900  0.74892810    -0.72400
O1669       O  0.51689406  0.48494295  0.79827640    -0.72300
O1670       O  0.51450877  0.48251018  0.70161057    -0.72300
O1671       O  0.48550321  0.51741145  0.70158489    -0.72300
O1672       O  0.48309899  0.51509057  0.79825152    -0.72300
O1673       O  0.53238536  0.56434371  0.75091559    -0.72200
O1674       O  0.43574574  0.46770514  0.74891735    -0.72400
V1675       V  0.51526799  0.48451995  0.74994309     1.35200
V1676       V  0.48473281  0.51545565  0.74991602     1.35200
C1677       C  0.43528559  0.43527904  0.74993659     0.77000
C1678       C  0.56471472  0.56469562  0.74992366     0.77100
C1679       C  0.49999708  0.50002601  0.81467415     0.77000
C1680       C  0.50001056  0.49995717  0.68524345     0.76900
O1681       O  0.63471984  0.93566458  0.24904537    -0.72200
O1682       O  0.63465530  0.69890811  0.25106874    -0.72400
O1683       O  0.63475069  0.98494601  0.20171011    -0.72300
O1684       O  0.63469854  0.98255948  0.29837723    -0.72300
O1685       O  0.36528296  0.68409611  0.29840844    -0.72300
O1686       O  0.36528564  0.68171290  0.20173445    -0.72300
O1687       O  0.36530243  0.73100180  0.24906506    -0.72200
O1688       O  0.36529489  0.96771039  0.25103643    -0.72400
V1689       V  0.63595360  0.98454937  0.25004283     1.35200
V1690       V  0.36405900  0.68211143  0.25007272     1.35200
C1691       C  0.33333224  0.93528149  0.25003712     0.77000
C1692       C  0.33332879  0.73135905  0.25007498     0.77100
C1693       C  0.66673694  0.00003336  0.18531101     0.77000
C1694       C  0.66667021  0.66665579  0.31474996     0.76900
O1695       O  0.36529651  0.89767528  0.24905145    -0.72200
O1696       O  0.36531862  0.80104434  0.25107069    -0.72400
O1697       O  0.36530294  0.84839563  0.20172744    -0.72300
O1698       O  0.36529550  0.85077412  0.29840102    -0.72300
O1699       O  0.63467309  0.81589111  0.29841651    -0.72300
O1700       O  0.63467202  0.81823908  0.20174238    -0.72300
O1701       O  0.63465030  0.76895801  0.24908939    -0.72200
O1702       O  0.63468531  0.86562210  0.25107163    -0.72400
V1703       V  0.36407220  0.84879077  0.25006436     1.35200
V1704       V  0.63590130  0.81785883  0.25008164     1.35200
C1705       C  0.33331713  0.89802396  0.25004930     0.77000
C1706       C  0.33335394  0.76861733  0.25007554     0.77100
C1707       C  0.33333034  0.83331068  0.18531803     0.77000
C1708       C  0.33334417  0.83332792  0.31475925     0.76900
O1709       O  0.46801722  0.93563834  0.24904907    -0.72200
O1710       O  0.46799644  0.69891278  0.25108133    -0.72400
O1711       O  0.46801225  0.98491751  0.20172315    -0.72300
O1712       O  0.46806117  0.98255549  0.29839412    -0.72300
O1713       O  0.53195329  0.68409291  0.29840375    -0.72300
O1714       O  0.53194344  0.68173116  0.20174357    -0.72300
O1715       O  0.53193876  0.73099575  0.24908287    -0.72200
O1716       O  0.53195942  0.96770244  0.25104386    -0.72400
V1717       V  0.46926152  0.98453090  0.25005905     1.35200
V1718       V  0.53071826  0.68211508  0.25007571     1.35200
C1719       C  0.49999033  0.93527880  0.25004706     0.77000
C1720       C  0.49995832  0.73134135  0.25008762     0.77100
C1721       C  0.49997997  0.99998804  0.18530792     0.77000
C1722       C  0.50002058  0.99999310  0.31474226     0.76900
O1723       O  0.53193667  0.84835477  0.20173064    -0.72200
O1724       O  0.53191774  0.85077365  0.29839558    -0.72400
O1725       O  0.53193822  0.80102240  0.25109368    -0.72300
O1726       O  0.53193521  0.89765825  0.24903376    -0.72300
O1727       O  0.46799427  0.86559014  0.25105756    -0.72300
O1728       O  0.46799709  0.76894802  0.24906836    -0.72300
O1729       O  0.46801306  0.81586743  0.29839590    -0.72200
O1730       O  0.46799589  0.81821653  0.20172674    -0.72400
V1731       V  0.53069987  0.84877055  0.25006426     1.35200
V1732       V  0.46923069  0.81783697  0.25006307     1.35200
C1733       C  0.49996805  0.83328274  0.18531829     0.77000
C1734       C  0.49996580  0.83332172  0.31475028     0.77100
C1735       C  0.49997429  0.76859655  0.25008734     0.77000
C1736       C  0.49996111  0.89801507  0.25004631     0.76900
O1737       O  0.34842360  0.69863442  0.46495167    -0.72200
O1738       O  0.35078080  0.69861483  0.36828248    -0.72400
O1739       O  0.63440903  0.69866838  0.41556360    -0.72300
O1740       O  0.39769264  0.69862786  0.41761519    -0.72300
O1741       O  0.36563014  0.96803636  0.41556167    -0.72300
O1742       O  0.60230320  0.96798187  0.41765041    -0.72300
O1743       O  0.64917574  0.96801240  0.36826216    -0.72200
O1744       O  0.65162885  0.96798322  0.46493962    -0.72400
V1745       V  0.34880781  0.69739724  0.41661669     1.35200
V1746       V  0.65119300  0.96922035  0.41660003     1.35200
C1747       C  0.33334244  0.66666244  0.48136131     0.77000
C1748       C  0.33333267  0.66666136  0.35192776     0.77100
C1749       C  0.60198181  0.66670508  0.41657890     0.77000
C1750       C  0.39804389  0.66665022  0.41660197     0.76900
O1751       O  0.36560101  0.80133333  0.41560406    -0.72200
O1752       O  0.60226848  0.80133263  0.41762266    -0.72400
O1753       O  0.64918180  0.80137064  0.36828715    -0.72300
O1754       O  0.65154130  0.80133329  0.46495329    -0.72300
O1755       O  0.34841732  0.86528704  0.46494709    -0.72300
O1756       O  0.35079133  0.86527665  0.36827997    -0.72300
O1757       O  0.63433164  0.86527712  0.41562871    -0.72200
O1758       O  0.39768394  0.86527659  0.41762119    -0.72400
V1759       V  0.65115706  0.80257944  0.41661967     1.35200
V1760       V  0.34880716  0.86405468  0.41661440     1.35200
C1761       C  0.39802664  0.83329548  0.41660782     0.77000
C1762       C  0.60191270  0.83330674  0.41661616     0.77100
C1763       C  0.33334232  0.83332518  0.35192177     0.77000
C1764       C  0.66661888  0.83330152  0.48136581     0.76900
O1765       O  0.43564882  0.96803326  0.41756151    -0.72200
O1766       O  0.53226234  0.96798362  0.41563013    -0.72400
O1767       O  0.48487348  0.96801378  0.46493376    -0.72300
O1768       O  0.48257893  0.96803158  0.36825726    -0.72300
O1769       O  0.51745983  0.69862666  0.36826488    -0.72300
O1770       O  0.51507451  0.69864058  0.46493226    -0.72300
O1771       O  0.56436741  0.69865585  0.41760385    -0.72200
O1772       O  0.46772410  0.69864081  0.41558565    -0.72400
V1773       V  0.48452358  0.96924659  0.41659431     1.35200
V1774       V  0.51547549  0.69741021  0.41659615     1.35200
C1775       C  0.43530191  0.66667357  0.41659262     0.77000
C1776       C  0.56472524  0.66668250  0.41658601     0.77100
C1777       C  0.50000014  0.66666728  0.48134047     0.77000
C1778       C  0.50003359  0.99998585  0.35190319     0.76900
O1779       O  0.43561888  0.80133076  0.41759956    -0.72200
O1780       O  0.53223905  0.80131506  0.41558260    -0.72400
O1781       O  0.48488633  0.80130791  0.46492757    -0.72300
O1782       O  0.48252016  0.80135640  0.36825662    -0.72300
O1783       O  0.51741853  0.86526262  0.36826872    -0.72300
O1784       O  0.51504540  0.86525033  0.46493622    -0.72300
O1785       O  0.56431354  0.86525829  0.41760672    -0.72200
O1786       O  0.46769776  0.86527498  0.41560163    -0.72400
V1787       V  0.48449758  0.80255852  0.41658988     1.35200
V1788       V  0.51543689  0.86402963  0.41660161     1.35200
C1789       C  0.43527387  0.83331116  0.41660071     0.77000
C1790       C  0.56466139  0.83328065  0.41659860     0.77100
C1791       C  0.49996898  0.83327670  0.48134303     0.77000
C1792       C  0.49996740  0.83331405  0.35190805     0.76900
O1793       O  0.36526985  0.68117483  0.03494067    -0.72200
O1794       O  0.36528016  0.68352585  0.13161518    -0.72400
O1795       O  0.36529703  0.96760053  0.08429416    -0.72300
O1796       O  0.36529833  0.73090696  0.08228735    -0.72300
O1797       O  0.63466674  0.69901299  0.08424798    -0.72300
O1798       O  0.63471054  0.93576278  0.08225834    -0.72300
O1799       O  0.63475429  0.98311969  0.13161668    -0.72200
O1800       O  0.63470409  0.98552412  0.03494969    -0.72400
V1801       V  0.36404784  0.68191632  0.08327730     1.35200
V1802       V  0.63595486  0.98475044  0.08328322     1.35200
C1803       C  0.66664630  0.00003006  0.01857903     0.77000
C1804       C  0.33329641  0.99999958  0.14800653     0.77100
C1805       C  0.33332159  0.93527098  0.08327457     0.77000
C1806       C  0.33333584  0.73137155  0.08328751     0.76900
O1807       O  0.36528464  0.84780620  0.03493460    -0.72200
O1808       O  0.36529954  0.85021567  0.13160950    -0.72400
O1809       O  0.36529652  0.80093042  0.08429134    -0.72300
O1810       O  0.36530723  0.89757167  0.08226031    -0.72300
O1811       O  0.63469047  0.86572598  0.08428077    -0.72300
O1812       O  0.63464123  0.76905324  0.08226726    -0.72300
O1813       O  0.63466828  0.81643077  0.13161645    -0.72200
O1814       O  0.63467340  0.81882133  0.03493618    -0.72400
V1815       V  0.36406567  0.84858224  0.08327228     1.35200
V1816       V  0.63589872  0.81805669  0.08327514     1.35200
C1817       C  0.66662565  0.83332890  0.01857785     0.77000
C1818       C  0.66664280  0.83330755  0.14802849     0.77100
C1819       C  0.33331843  0.76860475  0.08328248     0.77000
C1820       C  0.33334296  0.89803436  0.08326954     0.76900
O1821       O  0.46802419  0.98548658  0.03493704    -0.72200
O1822       O  0.46800623  0.98310095  0.13160524    -0.72400
O1823       O  0.46803548  0.69904561  0.08427295    -0.72300
O1824       O  0.46800172  0.93573326  0.08227091    -0.72300
O1825       O  0.53194395  0.96759922  0.08426341    -0.72300
O1826       O  0.53197929  0.73091924  0.08230630    -0.72300
O1827       O  0.53195696  0.68354034  0.13163931    -0.72200
O1828       O  0.53198097  0.68119195  0.03496160    -0.72400
V1829       V  0.46924407  0.98472604  0.08327086     1.35200
V1830       V  0.53074443  0.68193550  0.08330173     1.35200
C1831       C  0.49997717  0.00000290  0.01858140     0.77000
C1832       C  0.49997701  0.99998302  0.14801474     0.77100
C1833       C  0.50001124  0.73137534  0.08328112     0.77000
C1834       C  0.49996703  0.93527058  0.08326989     0.76900
O1835       O  0.53195255  0.84786286  0.03494486    -0.72200
O1836       O  0.53194957  0.85017889  0.13161838    -0.72400
O1837       O  0.53196255  0.80093750  0.08426488    -0.72300
O1838       O  0.53195964  0.89757597  0.08230234    -0.72300
O1839       O  0.46801666  0.86570340  0.08427734    -0.72300
O1840       O  0.46802002  0.76906598  0.08226888    -0.72300
O1841       O  0.46800747  0.81641520  0.13160760    -0.72200
O1842       O  0.46804579  0.81882167  0.03493762    -0.72400
V1843       V  0.53072461  0.84858869  0.08328151     1.35200
V1844       V  0.46925488  0.81805154  0.08327202     1.35200
C1845       C  0.50000146  0.83335379  0.01858484     0.77000
C1846       C  0.49997460  0.83328885  0.14802348     0.77100
C1847       C  0.49998686  0.76860829  0.08326817     0.77000
C1848       C  0.49999188  0.89803413  0.08328294     0.76900
O1849       O  0.35080864  0.98548797  0.96503952    -0.72200
O1850       O  0.34836558  0.98308931  0.86837047    -0.72400
O1851       O  0.39768656  0.69904656  0.91574058    -0.72300
O1852       O  0.63435883  0.93574728  0.91773494    -0.72300
O1853       O  0.60228586  0.96761665  0.91570108    -0.72300
O1854       O  0.36561378  0.73091943  0.91770397    -0.72300
O1855       O  0.65162784  0.68357958  0.86839951    -0.72200
O1856       O  0.64922898  0.68114633  0.96506829    -0.72400
V1857       V  0.34879341  0.98472286  0.91670494     1.35200
V1858       V  0.65122228  0.68193070  0.91673521     1.35200
C1859       C  0.66662829  0.00001601  0.98141726     0.77000
C1860       C  0.66666449  0.99998762  0.85197863     0.77100
C1861       C  0.39803769  0.73137560  0.91673176     0.77000
C1862       C  0.60193397  0.93528742  0.91671585     0.76900
O1863       O  0.35078416  0.81879912  0.96504778    -0.72200
O1864       O  0.34840247  0.81643288  0.86836944    -0.72400
O1865       O  0.39768169  0.86571356  0.91570623    -0.72300
O1866       O  0.63439011  0.76908066  0.91772790    -0.72300
O1867       O  0.60231151  0.80094464  0.91569673    -0.72300
O1868       O  0.36559278  0.89756623  0.91773895    -0.72300
O1869       O  0.65159943  0.85021572  0.86837056    -0.72200
O1870       O  0.64919601  0.84784299  0.96504572    -0.72400
V1871       V  0.34880079  0.81804845  0.91670850     1.35200
V1872       V  0.65119398  0.84859897  0.91670773     1.35200
C1873       C  0.33332866  0.83329302  0.98141087     0.77000
C1874       C  0.66667923  0.83331883  0.85196705     0.77100
C1875       C  0.39802486  0.89803933  0.91672807     0.77000
C1876       C  0.60196382  0.76861793  0.91671600     0.76900
O1877       O  0.51742369  0.98549964  0.96506553    -0.72200
O1878       O  0.51507331  0.98313272  0.86839516    -0.72400
O1879       O  0.56436569  0.69905438  0.91572014    -0.72300
O1880       O  0.46771087  0.93575423  0.91772636    -0.72300
O1881       O  0.43562696  0.96761368  0.91573323    -0.72300
O1882       O  0.53228445  0.73091668  0.91772388    -0.72300
O1883       O  0.48492402  0.68354594  0.86838863    -0.72200
O1884       O  0.48257936  0.68117354  0.96507037    -0.72400
V1885       V  0.51545470  0.98474846  0.91673129     1.35200
V1886       V  0.48454294  0.68192593  0.91672990     1.35200
C1887       C  0.49997908  0.00000807  0.98142134     0.77000
C1888       C  0.49998382  0.00001463  0.85198331     0.77100
C1889       C  0.56471169  0.73138092  0.91672135     0.77000
C1890       C  0.43528063  0.93528527  0.91673191     0.76900
O1891       O  0.48256062  0.84786944  0.96506192    -0.72200
O1892       O  0.48487399  0.85017017  0.86838396    -0.72400
O1893       O  0.43563296  0.80093419  0.91574679    -0.72300
O1894       O  0.53225089  0.89758448  0.91769288    -0.72300
O1895       O  0.56433544  0.86572391  0.91572532    -0.72300
O1896       O  0.46771688  0.76907389  0.91774470    -0.72300
O1897       O  0.51506904  0.81642123  0.86839942    -0.72200
O1898       O  0.51743749  0.81883871  0.96506957    -0.72400
V1899       V  0.48451117  0.84858994  0.91672293     1.35200
V1900       V  0.51545747  0.81806496  0.91673597     1.35200
C1901       C  0.50000349  0.83335992  0.98142227     0.77000
C1902       C  0.49996876  0.83328724  0.85197998     0.77100
C1903       C  0.43528919  0.76860959  0.91674534     0.77000
C1904       C  0.56467956  0.89805019  0.91671045     0.76900
O1905       O  0.35022124  0.69862971  0.53506627    -0.72200
O1906       O  0.34781278  0.69859752  0.63173144    -0.72400
O1907       O  0.39757393  0.69863172  0.58441087    -0.72300
O1908       O  0.63426418  0.69861351  0.58240638    -0.72300
O1909       O  0.60240161  0.96802784  0.58436695    -0.72300
O1910       O  0.36571233  0.96804445  0.58239397    -0.72300
O1911       O  0.65212065  0.96806437  0.63173770    -0.72200
O1912       O  0.64979900  0.96800489  0.53506792    -0.72400
V1913       V  0.34858259  0.69738671  0.58339996     1.35200
V1914       V  0.65138979  0.96926366  0.58340469     1.35200
C1915       C  0.33333054  0.66666091  0.51865390     0.77000
C1916       C  0.33331843  0.00000791  0.64807775     0.77100
C1917       C  0.39803826  0.66666780  0.58339687     0.77000
C1918       C  0.60193624  0.66663476  0.58339227     0.76900
O1919       O  0.39759705  0.86529511  0.58436555    -0.72200
O1920       O  0.63424837  0.86527785  0.58237445    -0.72400
O1921       O  0.34787773  0.86528344  0.63171648    -0.72300
O1922       O  0.35021879  0.86528995  0.53505157    -0.72300
O1923       O  0.64973714  0.80133125  0.53506936    -0.72300
O1924       O  0.65213546  0.80137596  0.63173359    -0.72300
O1925       O  0.60238462  0.80133512  0.58440634    -0.72200
O1926       O  0.36572456  0.80134987  0.58239623    -0.72400
V1927       V  0.34861507  0.86406008  0.58338417     1.35200
V1928       V  0.65137081  0.80257893  0.58340324     1.35200
C1929       C  0.39805228  0.83332710  0.58338145     0.77000
C1930       C  0.60192433  0.83329995  0.58339384     0.77100
C1931       C  0.66663403  0.83333378  0.64808055     0.77000
C1932       C  0.66662830  0.83330113  0.51865667     0.76900
O1933       O  0.51687212  0.69862897  0.53504813    -0.72200
O1934       O  0.51450907  0.69860305  0.63171575    -0.72400
O1935       O  0.56424184  0.69862341  0.58437537    -0.72300
O1936       O  0.46760353  0.69862324  0.58239111    -0.72300
O1937       O  0.43573163  0.96803648  0.58442432    -0.72300
O1938       O  0.53237221  0.96803851  0.58235084    -0.72300
O1939       O  0.48551044  0.96805397  0.63172481    -0.72200
O1940       O  0.48305481  0.96802779  0.53505500    -0.72400
V1941       V  0.51525623  0.69738750  0.58338296     1.35200
V1942       V  0.48471710  0.96927101  0.58339031     1.35200
C1943       C  0.49994494  0.99999577  0.51863981     0.77000
C1944       C  0.50001935  0.00000628  0.64808144     0.77100
C1945       C  0.56470133  0.66665702  0.58338202     0.77000
C1946       C  0.43527477  0.66664650  0.58339277     0.76900
O1947       O  0.51688890  0.86525746  0.53504138    -0.72200
O1948       O  0.51448604  0.86529090  0.63171245    -0.72400
O1949       O  0.56423701  0.86528691  0.58440106    -0.72300
O1950       O  0.46760649  0.86527994  0.58234711    -0.72300
O1951       O  0.43573963  0.80133881  0.58441206    -0.72300
O1952       O  0.53236988  0.80134358  0.58238469    -0.72300
O1953       O  0.48550801  0.80138698  0.63173308    -0.72200
O1954       O  0.48307461  0.80131646  0.53506034    -0.72400
V1955       V  0.51525492  0.86404770  0.58337681     1.35200
V1956       V  0.48472233  0.80257754  0.58339851     1.35200
C1957       C  0.49997796  0.83328075  0.51863945     0.77000
C1958       C  0.50000368  0.83334619  0.64807932     0.77100
C1959       C  0.56469497  0.83332078  0.58339572     0.77000
C1960       C  0.43528111  0.83330371  0.58338069     0.76900
O1961       O  0.60240213  0.96771820  0.74894575    -0.72200
O1962       O  0.36573061  0.73099139  0.75091598    -0.72400
O1963       O  0.65216313  0.68409802  0.70160542    -0.72300
O1964       O  0.64978504  0.68174344  0.79827848    -0.72300
O1965       O  0.35018178  0.98491669  0.79826673    -0.72300
O1966       O  0.34783612  0.98256865  0.70159572    -0.72300
O1967       O  0.39759878  0.69891577  0.74892128    -0.72200
O1968       O  0.63427368  0.93564555  0.75093310    -0.72400
V1969       V  0.65140514  0.68212566  0.74994113     1.35200
V1970       V  0.34857994  0.98453837  0.74993117     1.35200
C1971       C  0.60194349  0.93529227  0.74994226     0.77000
C1972       C  0.39805927  0.73134319  0.74991055     0.77100
C1973       C  0.66663737  0.00002185  0.68524593     0.77000
C1974       C  0.66666938  0.99998648  0.81468253     0.76900
O1975       O  0.65213696  0.85077832  0.70159662    -0.72200
O1976       O  0.64977810  0.84839226  0.79826383    -0.72400
O1977       O  0.36570298  0.89767625  0.75091305    -0.72300
O1978       O  0.60241126  0.80103984  0.74892337    -0.72300
O1979       O  0.63428878  0.76897218  0.75089842    -0.72300
O1980       O  0.39757011  0.86559952  0.74893453    -0.72300
O1981       O  0.35018114  0.81822350  0.79825487    -0.72200
O1982       O  0.34784482  0.81588637  0.70158749    -0.72400
V1983       V  0.65139126  0.84879154  0.74992833     1.35200
V1984       V  0.34857807  0.81784910  0.74991914     1.35200
C1985       C  0.66664954  0.83334191  0.68523486     0.77000
C1986       C  0.66667244  0.83331075  0.81466857     0.77100
C1987       C  0.39803325  0.89802864  0.74992307     0.77000
C1988       C  0.60195837  0.76861650  0.74990395     0.76900
O1989       O  0.46760524  0.93564422  0.75093317    -0.72200
O1990       O  0.56426411  0.69893215  0.74889564    -0.72400
O1991       O  0.51686596  0.98491669  0.79828085    -0.72300
O1992       O  0.51452811  0.98256741  0.70160678    -0.72300
O1993       O  0.48551210  0.68411276  0.70158494    -0.72300
O1994       O  0.48311908  0.68174056  0.79825872    -0.72300
O1995       O  0.53240110  0.73101179  0.75092468    -0.72200
O1996       O  0.43573777  0.96771960  0.74893281    -0.72400
V1997       V  0.51526238  0.98453484  0.74994372     1.35200
V1998       V  0.48474713  0.68213221  0.74991937     1.35200
C1999       C  0.43527495  0.93529082  0.74992817     0.77000
C2000       C  0.56472657  0.73135964  0.74990384     0.77100
C2001       C  0.49998384  0.00001016  0.81468626     0.77000
C2002       C  0.50001512  0.00000496  0.68524447     0.76900
O2003       O  0.46762428  0.76896222  0.75092340    -0.72200
O2004       O  0.56425483  0.86560764  0.74893315    -0.72400
O2005       O  0.51688912  0.81822821  0.79826911    -0.72300
O2006       O  0.51451453  0.81589363  0.70159269    -0.72300
O2007       O  0.48551880  0.85080339  0.70160326    -0.72300
O2008       O  0.48307242  0.84835279  0.79827153    -0.72300
O2009       O  0.53237861  0.89767316  0.75097603    -0.72200
O2010       O  0.43574798  0.80102855  0.74890033    -0.72400
V2011       V  0.51527151  0.81785449  0.74992880     1.35200
V2012       V  0.48472971  0.84878285  0.74993696     1.35200
C2013       C  0.43529285  0.76860428  0.74990648     0.77000
C2014       C  0.56471040  0.89803094  0.74995122     0.77100
C2015       C  0.49997430  0.83328387  0.81468217     0.77000
C2016       C  0.50001831  0.83335387  0.68524144     0.76900
O2017       O  0.96802807  0.26895879  0.24903739    -0.72200
O2018       O  0.96801072  0.03227015  0.25107113    -0.72400
O2019       O  0.96800046  0.31822332  0.20171400    -0.72300
O2020       O  0.96804664  0.31586368  0.29838683    -0.72300
O2021       O  0.69860436  0.01743945  0.29840789    -0.72300
O2022       O  0.69869264  0.01511639  0.20173309    -0.72300
O2023       O  0.69865444  0.06437293  0.24906958    -0.72200
O2024       O  0.69860871  0.30102028  0.25106436    -0.72400
V2025       V  0.96924874  0.31783814  0.25005110     1.35200
V2026       V  0.69742322  0.01548528  0.25007197     1.35200
C2027       C  0.66663282  0.26860298  0.25007598     0.77000
C2028       C  0.66667377  0.06471979  0.25005026     0.77100
C2029       C  0.99996926  0.33329928  0.18529985     0.77000
C2030       C  0.99997034  0.99998907  0.31475984     0.76900
O2031       O  0.69858384  0.23100225  0.24905783    -0.72200
O2032       O  0.69863823  0.13439929  0.25105455    -0.72400
O2033       O  0.69860368  0.18174864  0.20171849    -0.72300
O2034       O  0.69858961  0.18410526  0.29839443    -0.72300
O2035       O  0.96803473  0.14923091  0.29836786    -0.72300
O2036       O  0.96804454  0.15156555  0.20170312    -0.72300
O2037       O  0.96802979  0.10230476  0.24905020    -0.72200
O2038       O  0.96802760  0.19893700  0.25101641    -0.72400
V2039       V  0.69737198  0.18213169  0.25005714     1.35200
V2040       V  0.96926660  0.15119114  0.25003513     1.35200
C2041       C  0.66660567  0.23134586  0.25007787     0.77000
C2042       C  0.66668129  0.10196824  0.25004394     0.77100
C2043       C  0.66662995  0.16667037  0.18530802     0.77000
C2044       C  0.66663851  0.16663842  0.31475182     0.76900
O2045       O  0.80135361  0.26896804  0.24904973    -0.72200
O2046       O  0.80135097  0.03227322  0.25107170    -0.72400
O2047       O  0.80134772  0.31825975  0.20173174    -0.72300
O2048       O  0.80139233  0.31586155  0.29840805    -0.72300
O2049       O  0.86529437  0.01745631  0.29840472    -0.72300
O2050       O  0.86531371  0.01508969  0.20173219    -0.72300
O2051       O  0.86529294  0.06436016  0.24906579    -0.72200
O2052       O  0.86529500  0.30103415  0.25108734    -0.72400
V2053       V  0.80259411  0.31785260  0.25007218     1.35200
V2054       V  0.86407556  0.01547976  0.25007111     1.35200
C2055       C  0.83332666  0.26861258  0.25007549     0.77000
C2056       C  0.83331017  0.06470232  0.25007060     0.77100
C2057       C  0.83331498  0.33332049  0.18531455     0.77000
C2058       C  0.83334752  0.33332812  0.31475920     0.76900
O2059       O  0.86529250  0.18175128  0.20174668    -0.72200
O2060       O  0.86522653  0.18407842  0.29841581    -0.72400
O2061       O  0.86528075  0.13437920  0.25108111    -0.72300
O2062       O  0.86527163  0.23100394  0.24908724    -0.72300
O2063       O  0.80132793  0.19893234  0.25107059    -0.72300
O2064       O  0.80133949  0.10229951  0.24905289    -0.72300
O2065       O  0.80132054  0.14918655  0.29839410    -0.72200
O2066       O  0.80135076  0.15158977  0.20173049    -0.72400
V2067       V  0.86403575  0.18212130  0.25008365     1.35200
V2068       V  0.80256568  0.15118364  0.25006322     1.35200
C2069       C  0.83332643  0.16667372  0.18532830     0.77000
C2070       C  0.83326603  0.16662644  0.31475863     0.77100
C2071       C  0.83331978  0.10195298  0.25006955     0.77000
C2072       C  0.83329607  0.23135601  0.25008137     0.76900
O2073       O  0.68176749  0.03192456  0.46493934    -0.72200
O2074       O  0.68407749  0.03191758  0.36827227    -0.72400
O2075       O  0.96772211  0.03197496  0.41562715    -0.72300
O2076       O  0.73101104  0.03192555  0.41758065    -0.72300
O2077       O  0.69895704  0.30136264  0.41560089    -0.72300
O2078       O  0.93565341  0.30137101  0.41758258    -0.72300
O2079       O  0.98257255  0.30138505  0.36825613    -0.72200
O2080       O  0.98490780  0.30136314  0.46492688    -0.72400
V2081       V  0.68212484  0.03069020  0.41660496     1.35200
V2082       V  0.98453934  0.30260460  0.41658978     1.35200
C2083       C  0.66670769  0.99995649  0.48135093     0.77000
C2084       C  0.66662328  0.99997011  0.35191084     0.77100
C2085       C  0.93529733  0.00000873  0.41663067     0.77000
C2086       C  0.73136454  0.99994977  0.41656094     0.76900
O2087       O  0.69890187  0.13466017  0.41558738    -0.72200
O2088       O  0.93560962  0.13467098  0.41758201    -0.72400
O2089       O  0.98252945  0.13472166  0.36823897    -0.72300
O2090       O  0.98489389  0.13466440  0.46491607    -0.72300
O2091       O  0.68171921  0.19862827  0.46494382    -0.72300
O2092       O  0.68410716  0.19859634  0.36827023    -0.72300
O2093       O  0.96766796  0.19861382  0.41558790    -0.72200
O2094       O  0.73098949  0.19860232  0.41762685    -0.72400
V2095       V  0.98450684  0.13592164  0.41657336     1.35200
V2096       V  0.68211717  0.19738747  0.41660668     1.35200
C2097       C  0.73132965  0.16662059  0.41660675     0.77000
C2098       C  0.93524657  0.16664338  0.41658031     0.77100
C2099       C  0.66663659  0.16664253  0.35191604     0.77000
C2100       C  0.99996403  0.16662878  0.48133881     0.76900
O2101       O  0.76899150  0.30137144  0.41761403    -0.72200
O2102       O  0.86562248  0.30136201  0.41561070    -0.72400
O2103       O  0.81826113  0.30136765  0.46494826    -0.72300
O2104       O  0.81590378  0.30138242  0.36827905    -0.72300
O2105       O  0.85078786  0.03193567  0.36827870    -0.72300
O2106       O  0.84838622  0.03195251  0.46494608    -0.72300
O2107       O  0.89768362  0.03195777  0.41763215    -0.72200
O2108       O  0.80104352  0.03194430  0.41558543    -0.72400
V2109       V  0.81787676  0.30260289  0.41661279     1.35200
V2110       V  0.84879420  0.03071519  0.41661021     1.35200
C2111       C  0.76862137  0.99997536  0.41657218     0.77000
C2112       C  0.89804091  0.99998363  0.41663150     0.77100
C2113       C  0.83330162  0.99998360  0.48135965     0.77000
C2114       C  0.83335250  0.33333375  0.35192125     0.76900
O2115       O  0.76892497  0.13465554  0.41761950    -0.72200
O2116       O  0.86555798  0.13464757  0.41558175    -0.72400
O2117       O  0.81821357  0.13465605  0.46493347    -0.72300
O2118       O  0.81581077  0.13466607  0.36826807    -0.72300
O2119       O  0.85070623  0.19857270  0.36826750    -0.72300
O2120       O  0.84836813  0.19859890  0.46492856    -0.72300
O2121       O  0.89762915  0.19859019  0.41759036    -0.72200
O2122       O  0.80100110  0.19859890  0.41560559    -0.72400
V2123       V  0.81780818  0.13588691  0.41659990     1.35200
V2124       V  0.84874418  0.19735781  0.41659703     1.35200
C2125       C  0.76857707  0.16663408  0.41661011     0.77000
C2126       C  0.89798339  0.16661395  0.41658098     0.77100
C2127       C  0.83329396  0.16662962  0.48133975     0.77000
C2128       C  0.83325491  0.16661995  0.35191425     0.76900
O2129       O  0.69860856  0.01452619  0.03492067    -0.72200
O2130       O  0.69869544  0.01691110  0.13159441    -0.72400
O2131       O  0.69860681  0.30091103  0.08428476    -0.72300
O2132       O  0.69865952  0.06427046  0.08226973    -0.72300
O2133       O  0.96802206  0.03238123  0.08427889    -0.72300
O2134       O  0.96801891  0.26906432  0.08223361    -0.72300
O2135       O  0.96800391  0.31639574  0.13159118    -0.72200
O2136       O  0.96804300  0.31883757  0.03492570    -0.72400
V2137       V  0.69742417  0.01528266  0.08325682     1.35200
V2138       V  0.96925092  0.31804794  0.08325657     1.35200
C2139       C  0.99999741  0.33333926  0.01857566     0.77000
C2140       C  0.66668497  0.33333911  0.14801689     0.77100
C2141       C  0.66662293  0.26859111  0.08326721     0.77000
C2142       C  0.66668984  0.06472440  0.08329104     0.76900
O2143       O  0.69858612  0.18114312  0.03492686    -0.72200
O2144       O  0.69859943  0.18356279  0.13159840    -0.72400
O2145       O  0.69862075  0.13428114  0.08428627    -0.72300
O2146       O  0.69859651  0.23089552  0.08224288    -0.72300
O2147       O  0.96803285  0.19904597  0.08428529    -0.72300
O2148       O  0.96801824  0.10240434  0.08226282    -0.72300
O2149       O  0.96804225  0.14976353  0.13160502    -0.72200
O2150       O  0.96803364  0.15215680  0.03494342    -0.72400
V2151       V  0.69736758  0.18191967  0.08326159     1.35200
V2152       V  0.96926323  0.15139284  0.08327343     1.35200
C2153       C  0.99998447  0.16665985  0.01858655     0.77000
C2154       C  0.00001662  0.16665007  0.14800898     0.77100
C2155       C  0.66665234  0.10194912  0.08328303     0.77000
C2156       C  0.66663072  0.23135230  0.08325176     0.76900
O2157       O  0.80139403  0.31882842  0.03491833    -0.72200
O2158       O  0.80134820  0.31645664  0.13159562    -0.72400
O2159       O  0.80135484  0.03238833  0.08431166    -0.72300
O2160       O  0.80133759  0.26907742  0.08226542    -0.72300
O2161       O  0.86527941  0.30092904  0.08428050    -0.72300
O2162       O  0.86529527  0.06425300  0.08226790    -0.72300
O2163       O  0.86530324  0.01688824  0.13160262    -0.72200
O2164       O  0.86525728  0.01450360  0.03492961    -0.72400
V2165       V  0.80259781  0.31807546  0.08325504     1.35200
V2166       V  0.86405261  0.01526326  0.08326375     1.35200
C2167       C  0.83334951  0.33332279  0.01856760     0.77000
C2168       C  0.83331607  0.33333202  0.14801333     0.77100
C2169       C  0.83333090  0.06471502  0.08328992     0.77000
C2170       C  0.83329811  0.26860716  0.08327464     0.76900
O2171       O  0.86525181  0.18116609  0.03494745    -0.72200
O2172       O  0.86529543  0.18356158  0.13161916    -0.72400
O2173       O  0.86528390  0.13427856  0.08428846    -0.72300
O2174       O  0.86527992  0.23091171  0.08227917    -0.72300
O2175       O  0.80133813  0.19904329  0.08429637    -0.72300
O2176       O  0.80134143  0.10240762  0.08229174    -0.72300
O2177       O  0.80135412  0.14977559  0.13162684    -0.72200
O2178       O  0.80134673  0.15214950  0.03495429    -0.72400
V2179       V  0.86404583  0.18192911  0.08328247     1.35200
V2180       V  0.80257638  0.15139305  0.08329139     1.35200
C2181       C  0.83329754  0.16666205  0.01859385     0.77000
C2182       C  0.83332742  0.16667166  0.14803355     0.77100
C2183       C  0.83330848  0.10194961  0.08328982     0.77000
C2184       C  0.83331382  0.23137074  0.08328273     0.76900
O2185       O  0.68412078  0.31880903  0.96505730    -0.72200
O2186       O  0.68176888  0.31644594  0.86838602    -0.72400
O2187       O  0.73099496  0.03238425  0.91573728    -0.72300
O2188       O  0.96772816  0.26908102  0.91773937    -0.72300
O2189       O  0.93564895  0.30094455  0.91572927    -0.72300
O2190       O  0.69892358  0.06425698  0.91772328    -0.72300
O2191       O  0.98491871  0.01688706  0.86840684    -0.72200
O2192       O  0.98254450  0.01449513  0.96507319    -0.72400
V2193       V  0.68214985  0.31806028  0.91672201     1.35200
V2194       V  0.98452764  0.01525809  0.91674196     1.35200
C2195       C  0.00000225  0.33334581  0.98141923     0.77000
C2196       C  0.00001222  0.33332818  0.85198398     0.77100
C2197       C  0.73134937  0.06471484  0.91673443     0.77000
C2198       C  0.93529910  0.26861587  0.91673978     0.76900
O2199       O  0.68408788  0.15213173  0.96504964    -0.72200
O2200       O  0.68177975  0.14980332  0.86837775    -0.72400
O2201       O  0.73103497  0.19904625  0.91573204    -0.72300
O2202       O  0.96770901  0.10239813  0.91775813    -0.72300
O2203       O  0.93563829  0.13427098  0.91574367    -0.72300
O2204       O  0.69897331  0.23092867  0.91772323    -0.72300
O2205       O  0.98490934  0.18353515  0.86841315    -0.72200
O2206       O  0.98254136  0.18116604  0.96507714    -0.72400
V2207       V  0.68213912  0.15140048  0.91671412     1.35200
V2208       V  0.98452380  0.18192090  0.91674713     1.35200
C2209       C  0.66664628  0.16664436  0.98140479     0.77000
C2210       C  0.99997799  0.16663123  0.85200532     0.77100
C2211       C  0.73139483  0.23137956  0.91672819     0.77000
C2212       C  0.93528538  0.10194185  0.91675077     0.76900
O2213       O  0.85079766  0.31881185  0.96504816    -0.72200
O2214       O  0.84844147  0.31645136  0.86837449    -0.72400
O2215       O  0.89767786  0.03238131  0.91572943    -0.72300
O2216       O  0.80107945  0.26907239  0.91770752    -0.72300
O2217       O  0.76900369  0.30094082  0.91571483    -0.72300
O2218       O  0.86560520  0.06425249  0.91773511    -0.72300
O2219       O  0.81826530  0.01689870  0.86838493    -0.72200
O2220       O  0.81585613  0.01450338  0.96505224    -0.72400
V2221       V  0.84882444  0.31806189  0.91671180     1.35200
V2222       V  0.81785715  0.01526762  0.91671867     1.35200
C2223       C  0.83335542  0.33332299  0.98140521     0.77000
C2224       C  0.83335535  0.33334065  0.85196708     0.77100
C2225       C  0.89802993  0.06470970  0.91674031     0.77000
C2226       C  0.76865335  0.26861269  0.91671848     0.76900
O2227       O  0.81585686  0.18116832  0.96506416    -0.72200
O2228       O  0.81827173  0.18355401  0.86838369    -0.72400
O2229       O  0.76896817  0.13428127  0.91571032    -0.72300
O2230       O  0.86561136  0.23091796  0.91773949    -0.72300
O2231       O  0.89768058  0.19904423  0.91573840    -0.72300
O2232       O  0.80103458  0.10240617  0.91775320    -0.72300
O2233       O  0.84840888  0.14975030  0.86840185    -0.72200
O2234       O  0.85075686  0.15216275  0.96508012    -0.72400
V2235       V  0.81785877  0.18193099  0.91672532     1.35200
V2236       V  0.84878852  0.15139110  0.91674419     1.35200
C2237       C  0.83330002  0.16666301  0.98142953     0.77000
C2238       C  0.83334482  0.16665056  0.85197811     0.77100
C2239       C  0.76861041  0.10194998  0.91673539     0.77000
C2240       C  0.89803696  0.23137678  0.91674241     0.76900
O2241       O  0.68359080  0.03194653  0.53505082    -0.72200
O2242       O  0.68112643  0.03197012  0.63172278    -0.72400
O2243       O  0.73090820  0.03197176  0.58444009    -0.72300
O2244       O  0.96760598  0.03198663  0.58237437    -0.72300
O2245       O  0.93572333  0.30132635  0.58440051    -0.72300
O2246       O  0.69904850  0.30135882  0.58238007    -0.72300
O2247       O  0.98547875  0.30134472  0.63172632    -0.72200
O2248       O  0.98308375  0.30134487  0.53504988    -0.72400
V2249       V  0.68192377  0.03073365  0.58338769     1.35200
V2250       V  0.98471219  0.30256951  0.58339012     1.35200
C2251       C  0.66670585  0.99996771  0.51864796     0.77000
C2252       C  0.66664543  0.33330141  0.64808275     0.77100
C2253       C  0.73136837  0.00000580  0.58345124     0.77000
C2254       C  0.93527685  0.00000986  0.58337605     0.76900
O2255       O  0.73090643  0.19862876  0.58440254    -0.72200
O2256       O  0.96759102  0.19861541  0.58237709    -0.72400
O2257       O  0.68115457  0.19859823  0.63173030    -0.72300
O2258       O  0.68355065  0.19862567  0.53506355    -0.72300
O2259       O  0.98308135  0.13465878  0.53506630    -0.72300
O2260       O  0.98548482  0.13472010  0.63175140    -0.72300
O2261       O  0.93572497  0.13467455  0.58441250    -0.72200
O2262       O  0.69904290  0.13468546  0.58238747    -0.72400
V2263       V  0.68192031  0.19738422  0.58339835     1.35200
V2264       V  0.98471572  0.13591451  0.58341166     1.35200
C2265       C  0.73136744  0.16666436  0.58339131     0.77000
C2266       C  0.93526185  0.16663887  0.58339308     0.77100
C2267       C  0.99998952  0.16667855  0.64810092     0.77000
C2268       C  0.99997185  0.16662576  0.51864473     0.76900
O2269       O  0.85017941  0.03196520  0.53506495    -0.72200
O2270       O  0.84784342  0.03196327  0.63173755    -0.72400
O2271       O  0.89757395  0.03198977  0.58438275    -0.72300
O2272       O  0.80092635  0.03196428  0.58242559    -0.72300
O2273       O  0.76906801  0.30134526  0.58440349    -0.72300
O2274       O  0.86570095  0.30134089  0.58239231    -0.72300
O2275       O  0.81881120  0.30135495  0.63173016    -0.72200
O2276       O  0.81643189  0.30135666  0.53506133    -0.72400
V2277       V  0.84858124  0.03073900  0.58340332     1.35200
V2278       V  0.81805254  0.30258073  0.58339753     1.35200
C2279       C  0.83332451  0.33333165  0.51865515     0.77000
C2280       C  0.83332572  0.33330811  0.64808635     0.77100
C2281       C  0.89803975  0.00002695  0.58338030     0.77000
C2282       C  0.76860197  0.99998515  0.58344511     0.76900
O2283       O  0.85019764  0.19861213  0.53503500    -0.72200
O2284       O  0.84780706  0.19861231  0.63170367    -0.72400
O2285       O  0.89756111  0.19862606  0.58437864    -0.72300
O2286       O  0.80092336  0.19862098  0.58235751    -0.72300
O2287       O  0.76905656  0.13467805  0.58438001    -0.72300
O2288       O  0.86569446  0.13468348  0.58237333    -0.72300
O2289       O  0.81880110  0.13470657  0.63170986    -0.72200
O2290       O  0.81640826  0.13466954  0.53504424    -0.72400
V2291       V  0.84857290  0.19738676  0.58336919     1.35200
V2292       V  0.81804016  0.13591626  0.58337712     1.35200
C2293       C  0.83330064  0.16663741  0.51863068     0.77000
C2294       C  0.83330355  0.16666103  0.64806265     0.77100
C2295       C  0.89802336  0.16666065  0.58338254     0.77000
C2296       C  0.76859777  0.16664386  0.58337632     0.76900
O2297       O  0.93575742  0.30102911  0.74892426    -0.72200
O2298       O  0.69904512  0.06435515  0.75095210    -0.72400
O2299       O  0.98545724  0.01746541  0.70161749    -0.72300
O2300       O  0.98308942  0.01507695  0.79829167    -0.72300
O2301       O  0.68357363  0.31824990  0.79826997    -0.72300
O2302       O  0.68116977  0.31586154  0.70159789    -0.72300
O2303       O  0.73091010  0.03227787  0.74891632    -0.72200
O2304       O  0.96762392  0.26895255  0.75094241    -0.72400
V2305       V  0.98470496  0.01547603  0.74995344     1.35200
V2306       V  0.68193993  0.31784937  0.74993351     1.35200
C2307       C  0.93529605  0.26860275  0.74992404     0.77000
C2308       C  0.73137220  0.06470474  0.74992841     0.77100
C2309       C  0.00000527  0.33330054  0.68524554     0.77000
C2310       C  0.00001059  0.33331644  0.81468565     0.76900
O2311       O  0.98550972  0.18414461  0.70163105    -0.72200
O2312       O  0.98306743  0.18169632  0.79830357    -0.72400
O2313       O  0.69906863  0.23102835  0.75093420    -0.72300
O2314       O  0.93572793  0.13438361  0.74893224    -0.72300
O2315       O  0.96758580  0.10229823  0.75094809    -0.72300
O2316       O  0.73092986  0.19894718  0.74889460    -0.72300
O2317       O  0.68360394  0.15162964  0.79826323    -0.72200
O2318       O  0.68114552  0.14918950  0.70159888    -0.72400
V2319       V  0.98472079  0.18212512  0.74996802     1.35200
V2320       V  0.68194070  0.15120365  0.74993003     1.35200
C2321       C  0.00000076  0.16668719  0.68526777     0.77000
C2322       C  0.99996355  0.16661841  0.81471037     0.77100
C2323       C  0.73139372  0.23137470  0.74991379     0.77000
C2324       C  0.93526196  0.10195417  0.74993340     0.76900
O2325       O  0.80095495  0.26897697  0.75093997    -0.72200
O2326       O  0.89756829  0.03227386  0.74892660    -0.72400
O2327       O  0.85024322  0.31826333  0.79826095    -0.72300
O2328       O  0.84783587  0.31586732  0.70159698    -0.72300
O2329       O  0.81881858  0.01745364  0.70160598    -0.72300
O2330       O  0.81642736  0.01506598  0.79827617    -0.72300
O2331       O  0.86570094  0.06434967  0.75094918    -0.72200
O2332       O  0.76908723  0.30105287  0.74892446    -0.72400
V2333       V  0.84860598  0.31786071  0.74992705     1.35200
V2334       V  0.81805122  0.01546516  0.74993974     1.35200
C2335       C  0.76862795  0.26862749  0.74992411     0.77000
C2336       C  0.89802779  0.06469984  0.74993249     0.77100
C2337       C  0.83335201  0.33334184  0.81467185     0.77000
C2338       C  0.83332744  0.33331107  0.68524152     0.76900
O2339       O  0.80093531  0.10230084  0.75091172    -0.72200
O2340       O  0.89758912  0.19891932  0.74890538    -0.72400
O2341       O  0.85022705  0.15155851  0.79825384    -0.72300
O2342       O  0.84782327  0.14921203  0.70157262    -0.72300
O2343       O  0.81881305  0.18410821  0.70158903    -0.72300
O2344       O  0.81646704  0.18174108  0.79826445    -0.72300
O2345       O  0.86573374  0.23100692  0.75092089    -0.72200
O2346       O  0.76907855  0.13438860  0.74893232    -0.72400
V2347       V  0.84859427  0.15117951  0.74990963     1.35200
V2348       V  0.81807336  0.18212909  0.74992527     1.35200
C2349       C  0.76861096  0.10195798  0.74992157     0.77000
C2350       C  0.89805801  0.23134931  0.74991261     0.77100
C2351       C  0.83334902  0.16664858  0.81467362     0.77000
C2352       C  0.83331352  0.16666151  0.68522442     0.76900
O2353       O  0.96802749  0.60230911  0.24903229    -0.72200
O2354       O  0.96799646  0.36558137  0.25106170    -0.72400
O2355       O  0.96805164  0.65160595  0.20171545    -0.72300
O2356       O  0.96803231  0.64919804  0.29838954    -0.72300
O2357       O  0.69861013  0.35073886  0.29840248    -0.72300
O2358       O  0.69865346  0.34841433  0.20173180    -0.72300
O2359       O  0.69866630  0.39768553  0.24908041    -0.72200
O2360       O  0.69866728  0.63440211  0.25105715    -0.72400
V2361       V  0.96926675  0.65119685  0.25005146     1.35200
V2362       V  0.69740251  0.34878288  0.25007040     1.35200
C2363       C  0.66670984  0.60196917  0.25005781     0.77000
C2364       C  0.66669707  0.39805311  0.25006673     0.77100
C2365       C  0.00002513  0.66666043  0.18530995     0.77000
C2366       C  0.00000360  0.33332642  0.31473655     0.76900
O2367       O  0.69867794  0.56437164  0.24904129    -0.72200
O2368       O  0.69869308  0.46773993  0.25105738    -0.72400
O2369       O  0.69866700  0.51508506  0.20171372    -0.72300
O2370       O  0.69868004  0.51747565  0.29838570    -0.72300
O2371       O  0.96804599  0.48256144  0.29840644    -0.72300
O2372       O  0.96796983  0.48487483  0.20173244    -0.72300
O2373       O  0.96799770  0.43562134  0.24907877    -0.72200
O2374       O  0.96800159  0.53226618  0.25106513    -0.72400
V2375       V  0.69744856  0.51548688  0.25005034     1.35200
V2376       V  0.96923458  0.48451254  0.25007167     1.35200
C2377       C  0.66669899  0.56471893  0.25005365     0.77000
C2378       C  0.66672673  0.43531397  0.25006564     0.77100
C2379       C  0.66669379  0.49999742  0.18530935     0.77000
C2380       C  0.66673009  0.50003067  0.31474612     0.76900
O2381       O  0.80138219  0.60229834  0.24905762    -0.72200
O2382       O  0.80135672  0.36559636  0.25109423    -0.72400
O2383       O  0.80136634  0.65157196  0.20172361    -0.72300
O2384       O  0.80140441  0.64920825  0.29839491    -0.72300
O2385       O  0.86529503  0.35078922  0.29839724    -0.72300
O2386       O  0.86528678  0.34837137  0.20172368    -0.72300
O2387       O  0.86529728  0.39766698  0.24903559    -0.72200
O2388       O  0.86532421  0.63437292  0.25105031    -0.72400
V2389       V  0.80261243  0.65118507  0.25006009     1.35200
V2390       V  0.86406305  0.34878372  0.25006196     1.35200
C2391       C  0.83335857  0.60194530  0.25006304     0.77000
C2392       C  0.83332070  0.39801774  0.25006231     0.77100
C2393       C  0.83333503  0.66666359  0.18530849     0.77000
C2394       C  0.83335918  0.66664893  0.31474789     0.76900
O2395       O  0.86534747  0.51507818  0.20174223    -0.72200
O2396       O  0.86525088  0.51738171  0.29840660    -0.72400
O2397       O  0.86530648  0.46769084  0.25107233    -0.72300
O2398       O  0.86530851  0.56432697  0.24908275    -0.72300
O2399       O  0.80136588  0.53225750  0.25106695    -0.72300
O2400       O  0.80136562  0.43562037  0.24902111    -0.72300
O2401       O  0.80134562  0.48248352  0.29838140    -0.72200
O2402       O  0.80140633  0.48493495  0.20171228    -0.72400
V2403       V  0.86407074  0.51543745  0.25007717     1.35200
V2404       V  0.80260110  0.48450535  0.25004635     1.35200
C2405       C  0.83338763  0.50001394  0.18531727     0.77000
C2406       C  0.83329116  0.49992341  0.31474859     0.77100
C2407       C  0.83334180  0.43526908  0.25005164     0.77000
C2408       C  0.83333320  0.56468293  0.25007522     0.76900
O2409       O  0.68176311  0.36532479  0.46493260    -0.72200
O2410       O  0.68411433  0.36527630  0.36826161    -0.72400
O2411       O  0.96772571  0.36531420  0.41558018    -0.72300
O2412       O  0.73103106  0.36530564  0.41760105    -0.72300
O2413       O  0.69895365  0.63469875  0.41559694    -0.72300
O2414       O  0.93566111  0.63469720  0.41762773    -0.72300
O2415       O  0.98255791  0.63471190  0.36827929    -0.72200
O2416       O  0.98495368  0.63472081  0.46495158    -0.72400
V2417       V  0.68214485  0.36407385  0.41659449     1.35200
V2418       V  0.98455168  0.63594347  0.41661589     1.35200
C2419       C  0.66668933  0.33335614  0.48134822     0.77000
C2420       C  0.66665818  0.33332003  0.35191230     0.77100
C2421       C  0.93530166  0.33334840  0.41658380     0.77000
C2422       C  0.73138294  0.33332832  0.41659964     0.76900
O2423       O  0.69899416  0.46803377  0.41559489    -0.72200
O2424       O  0.93566674  0.46802821  0.41759050    -0.72400
O2425       O  0.98257338  0.46804602  0.36825872    -0.72300
O2426       O  0.98492663  0.46800476  0.46493065    -0.72300
O2427       O  0.68175897  0.53195324  0.46494062    -0.72300
O2428       O  0.68416473  0.53196867  0.36827029    -0.72300
O2429       O  0.96775093  0.53197147  0.41558742    -0.72200
O2430       O  0.73105745  0.53197598  0.41762136    -0.72400
V2431       V  0.98454343  0.46924828  0.41659270     1.35200
V2432       V  0.68216462  0.53073073  0.41660403     1.35200
C2433       C  0.73141437  0.50000059  0.41661067     0.77000
C2434       C  0.93532229  0.50000817  0.41657797     0.77100
C2435       C  0.66672991  0.50002112  0.35190674     0.77000
C2436       C  0.00001424  0.49997675  0.48134250     0.76900
O2437       O  0.76899063  0.63469805  0.41761499    -0.72200
O2438       O  0.86562141  0.63467974  0.41560315    -0.72400
O2439       O  0.81827061  0.63469679  0.46494126    -0.72300
O2440       O  0.81589513  0.63469973  0.36826954    -0.72300
O2441       O  0.85079581  0.36528833  0.36827581    -0.72300
O2442       O  0.84841869  0.36530987  0.46494901    -0.72300
O2443       O  0.89769681  0.36530514  0.41761682    -0.72200
O2444       O  0.80106561  0.36531402  0.41560363    -0.72400
V2445       V  0.81787579  0.63592448  0.41660555     1.35200
V2446       V  0.84881273  0.36407315  0.41661119     1.35200
C2447       C  0.76863983  0.33334851  0.41660396     0.77000
C2448       C  0.89804745  0.33332780  0.41660238     0.77100
C2449       C  0.83333490  0.33333754  0.48135960     0.77000
C2450       C  0.83336058  0.66664998  0.35191040     0.76900
O2451       O  0.76901621  0.46804144  0.41764224    -0.72200
O2452       O  0.86564135  0.46802199  0.41558565    -0.72400
O2453       O  0.81832867  0.46806779  0.46494218    -0.72300
O2454       O  0.81586276  0.46799700  0.36827941    -0.72300
O2455       O  0.85076024  0.53190312  0.36824262    -0.72300
O2456       O  0.84848873  0.53201008  0.46491765    -0.72300
O2457       O  0.89771890  0.53196661  0.41755562    -0.72200
O2458       O  0.80109334  0.53198278  0.41559375    -0.72400
V2459       V  0.81789505  0.46926403  0.41661130     1.35200
V2460       V  0.84883475  0.53073453  0.41657630     1.35200
C2461       C  0.76866868  0.50002090  0.41661675     0.77000
C2462       C  0.89806784  0.49998811  0.41656719     0.77100
C2463       C  0.83340984  0.50004534  0.48134088     0.77000
C2464       C  0.83329402  0.49993795  0.35190636     0.76900
O2465       O  0.69860697  0.34778509  0.03492860    -0.72200
O2466       O  0.69865276  0.35023004  0.13159996    -0.72400
O2467       O  0.69865359  0.63427942  0.08426802    -0.72300
O2468       O  0.69865629  0.39757235  0.08223663    -0.72300
O2469       O  0.96801252  0.36569714  0.08428003    -0.72300
O2470       O  0.96800995  0.60239679  0.08225753    -0.72300
O2471       O  0.96804553  0.64976003  0.13160814    -0.72200
O2472       O  0.96802641  0.65215089  0.03493523    -0.72400
V2473       V  0.69740019  0.34857588  0.08326194     1.35200
V2474       V  0.96925737  0.65138586  0.08327126     1.35200
C2475       C  0.99997690  0.66665123  0.01857580     0.77000
C2476       C  0.66666665  0.66666046  0.14801944     0.77100
C2477       C  0.66668043  0.60194452  0.08327932     0.77000
C2478       C  0.66669474  0.39804131  0.08325314     0.76900
O2479       O  0.69863820  0.51447698  0.03493266    -0.72200
O2480       O  0.69865494  0.51689317  0.13160180    -0.72400
O2481       O  0.69865198  0.46760199  0.08428487    -0.72300
O2482       O  0.69866719  0.56424584  0.08225103    -0.72300
O2483       O  0.96800147  0.53236324  0.08425739    -0.72300
O2484       O  0.96799204  0.43571713  0.08225461    -0.72300
O2485       O  0.96796854  0.48306778  0.13159503    -0.72200
O2486       O  0.96803222  0.48547483  0.03492283    -0.72400
V2487       V  0.69742149  0.51525485  0.08326686     1.35200
V2488       V  0.96922949  0.48470524  0.08325668     1.35200
C2489       C  0.99999132  0.49999520  0.01857631     0.77000
C2490       C  0.99993396  0.49994647  0.14801454     0.77100
C2491       C  0.66667620  0.43527666  0.08325688     0.77000
C2492       C  0.66670475  0.56470981  0.08327351     0.76900
O2493       O  0.80139282  0.65213974  0.03493018    -0.72200
O2494       O  0.80136196  0.64976932  0.13160052    -0.72400
O2495       O  0.80138587  0.36573911  0.08424657    -0.72300
O2496       O  0.80138775  0.60241360  0.08227194    -0.72300
O2497       O  0.86532903  0.63430073  0.08429905    -0.72300
O2498       O  0.86532845  0.39758812  0.08225406    -0.72300
O2499       O  0.86528974  0.35021511  0.13160493    -0.72200
O2500       O  0.86529808  0.34782521  0.03493001    -0.72400
V2501       V  0.80260301  0.65138898  0.08326367     1.35200
V2502       V  0.86406702  0.34859017  0.08326600     1.35200
C2503       C  0.83334831  0.66664719  0.01857929     0.77000
C2504       C  0.83333103  0.66667549  0.14801281     0.77100
C2505       C  0.83336982  0.39806119  0.08324840     0.77000
C2506       C  0.83335969  0.60196661  0.08328708     0.76900
O2507       O  0.86530195  0.51451955  0.03493317    -0.72200
O2508       O  0.86536788  0.51691088  0.13160823    -0.72400
O2509       O  0.86533928  0.46762695  0.08426292    -0.72300
O2510       O  0.86535531  0.56427556  0.08227510    -0.72300
O2511       O  0.80141428  0.53240899  0.08430675    -0.72300
O2512       O  0.80139652  0.43576716  0.08227144    -0.72300
O2513       O  0.80142623  0.48312919  0.13161863    -0.72200
O2514       O  0.80139719  0.48551600  0.03495614    -0.72400
V2515       V  0.86411102  0.51528397  0.08326911     1.35200
V2516       V  0.80264150  0.48475555  0.08328762     1.35200
C2517       C  0.83334102  0.50001684  0.01858917     0.77000
C2518       C  0.83339935  0.50002092  0.14802351     0.77100
C2519       C  0.83335894  0.43530129  0.08325795     0.77000
C2520       C  0.83338986  0.56473589  0.08329019     0.76900
O2521       O  0.68412247  0.65213296  0.96506382    -0.72200
O2522       O  0.68176135  0.64977098  0.86839253    -0.72400
O2523       O  0.73102765  0.36572652  0.91572424    -0.72300
O2524       O  0.96770652  0.60240056  0.91772842    -0.72300
O2525       O  0.93565456  0.63429239  0.91572578    -0.72300
O2526       O  0.69893575  0.39757696  0.91775125    -0.72300
O2527       O  0.98492398  0.35021610  0.86838959    -0.72200
O2528       O  0.98255581  0.34785218  0.96506185    -0.72400
V2529       V  0.68214751  0.65138489  0.91672866     1.35200
V2530       V  0.98453221  0.34860238  0.91672817     1.35200
C2531       C  0.99998332  0.66664995  0.98141718     0.77000
C2532       C  0.00002614  0.66664274  0.85198013     0.77100
C2533       C  0.73136742  0.39805032  0.91674103     0.77000
C2534       C  0.93528774  0.60195689  0.91673525     0.76900
O2535       O  0.68411049  0.48546632  0.96505834    -0.72200
O2536       O  0.68173476  0.48310064  0.86838971    -0.72400
O2537       O  0.73101640  0.53236975  0.91572455    -0.72300
O2538       O  0.96772587  0.43573214  0.91775144    -0.72300
O2539       O  0.93564828  0.46759730  0.91571087    -0.72300
O2540       O  0.69894407  0.56424041  0.91773167    -0.72300
O2541       O  0.98492500  0.51687261  0.86838464    -0.72200
O2542       O  0.98254026  0.51448791  0.96505617    -0.72400
V2543       V  0.68212752  0.48471552  0.91672444     1.35200
V2544       V  0.98452838  0.51524889  0.91672231     1.35200
C2545       C  0.66667824  0.49998492  0.98141909     0.77000
C2546       C  0.99998895  0.49996434  0.85197451     0.77100
C2547       C  0.73137071  0.56470037  0.91673459     0.77000
C2548       C  0.93530151  0.43527168  0.91673271     0.76900
O2549       O  0.85079931  0.65215033  0.96506210    -0.72200
O2550       O  0.84840537  0.64976579  0.86839466    -0.72400
O2551       O  0.89770553  0.36571375  0.91571649    -0.72300
O2552       O  0.80105890  0.60240061  0.91773808    -0.72300
O2553       O  0.76898386  0.63426910  0.91574370    -0.72300
O2554       O  0.86562694  0.39757952  0.91771844    -0.72300
O2555       O  0.81826926  0.35022271  0.86838098    -0.72200
O2556       O  0.81591301  0.34783441  0.96504978    -0.72400
V2557       V  0.84880832  0.65139140  0.91672903     1.35200
V2558       V  0.81788519  0.34859399  0.91671649     1.35200
C2559       C  0.83335310  0.66665421  0.98142149     0.77000
C2560       C  0.83332176  0.66665594  0.85198772     0.77100
C2561       C  0.89805192  0.39803956  0.91672476     0.77000
C2562       C  0.76863135  0.60193902  0.91674210     0.76900
O2563       O  0.81586219  0.51450510  0.96507638    -0.72200
O2564       O  0.81825247  0.51692470  0.86839871    -0.72400
O2565       O  0.76896458  0.46762185  0.91572381    -0.72300
O2566       O  0.86559952  0.56427194  0.91775692    -0.72300
O2567       O  0.89767021  0.53240007  0.91572872    -0.72300
O2568       O  0.80104665  0.43576118  0.91774273    -0.72300
O2569       O  0.84839740  0.48312784  0.86839928    -0.72200
O2570       O  0.85077358  0.48551101  0.96506900    -0.72400
V2571       V  0.81784995  0.51528145  0.91673990     1.35200
V2572       V  0.84878886  0.48475007  0.91673590     1.35200
C2573       C  0.83332246  0.50000961  0.98142846     0.77000
C2574       C  0.83333012  0.50003054  0.85198609     0.77100
C2575       C  0.76861836  0.43529461  0.91673828     0.77000
C2576       C  0.89802464  0.56472892  0.91674403     0.76900
O2577       O  0.68358337  0.36531798  0.53506414    -0.72200
O2578       O  0.68113874  0.36525802  0.63173420    -0.72400
O2579       O  0.73091396  0.36529991  0.58442755    -0.72300
O2580       O  0.96758899  0.36527000  0.58241078    -0.72300
O2581       O  0.93574207  0.63469986  0.58438800    -0.72300
O2582       O  0.69904248  0.63467965  0.58239018    -0.72300
O2583       O  0.98547365  0.63470967  0.63172681    -0.72200
O2584       O  0.98311778  0.63471975  0.53505913    -0.72400
V2585       V  0.68192686  0.36406060  0.58340144     1.35200
V2586       V  0.98472730  0.63594104  0.58339380     1.35200
C2587       C  0.66668732  0.33335285  0.51864484     0.77000
C2588       C  0.66664878  0.66663162  0.64808688     0.77100
C2589       C  0.73137572  0.33333559  0.58341098     0.77000
C2590       C  0.93526228  0.33329217  0.58340824     0.76900
O2591       O  0.73092356  0.53192963  0.58441514    -0.72200
O2592       O  0.96762479  0.53196898  0.58234660    -0.72400
O2593       O  0.68116741  0.53191720  0.63173361    -0.72300
O2594       O  0.68358446  0.53194444  0.53506021    -0.72300
O2595       O  0.98313520  0.46802027  0.53505474    -0.72300
O2596       O  0.98550978  0.46807501  0.63172103    -0.72300
O2597       O  0.93576829  0.46802681  0.58438007    -0.72200
O2598       O  0.69904764  0.46798756  0.58239802    -0.72400
V2599       V  0.68194456  0.53070514  0.58339827     1.35200
V2600       V  0.98475786  0.46927668  0.58338950     1.35200
C2601       C  0.73137908  0.49996113  0.58340793     0.77000
C2602       C  0.93530183  0.49998888  0.58336637     0.77100
C2603       C  0.99999534  0.50002889  0.64807192     0.77000
C2604       C  0.00002404  0.49998526  0.51863706     0.76900
O2605       O  0.85021099  0.36529906  0.53507044    -0.72200
O2606       O  0.84783783  0.36526270  0.63173529    -0.72400
O2607       O  0.89757298  0.36528391  0.58440114    -0.72300
O2608       O  0.80093902  0.36528894  0.58241361    -0.72300
O2609       O  0.76907762  0.63467695  0.58441003    -0.72300
O2610       O  0.86572533  0.63470328  0.58236425    -0.72300
O2611       O  0.81885308  0.63470396  0.63172701    -0.72200
O2612       O  0.81643341  0.63469787  0.53505431    -0.72400
V2613       V  0.84858992  0.36405155  0.58340552     1.35200
V2614       V  0.81807115  0.63592698  0.58339034     1.35200
C2615       C  0.83332682  0.66666993  0.51864492     0.77000
C2616       C  0.83335737  0.66665556  0.64808617     0.77100
C2617       C  0.89802960  0.33331601  0.58340278     0.77000
C2618       C  0.76860973  0.33331197  0.58341368     0.76900
O2619       O  0.85025560  0.53199530  0.53506577    -0.72200
O2620       O  0.84782916  0.53188366  0.63173604    -0.72400
O2621       O  0.89759687  0.53196177  0.58440053    -0.72300
O2622       O  0.80094251  0.53192452  0.58240674    -0.72300
O2623       O  0.76908730  0.46798025  0.58437193    -0.72300
O2624       O  0.86574347  0.46802013  0.58235610    -0.72300
O2625       O  0.81882859  0.46797849  0.63170570    -0.72200
O2626       O  0.81648937  0.46805261  0.53503103    -0.72400
V2627       V  0.84860502  0.53070900  0.58340339     1.35200
V2628       V  0.81808571  0.46923883  0.58336715     1.35200
C2629       C  0.83338838  0.50003627  0.51863730     0.77000
C2630       C  0.83332673  0.49992237  0.64807735     0.77100
C2631       C  0.89806532  0.50000087  0.58337496     0.77000
C2632       C  0.76861804  0.49994303  0.58339783     0.76900
O2633       O  0.93574600  0.63436759  0.74894875    -0.72200
O2634       O  0.69905584  0.39767169  0.75093087    -0.72400
O2635       O  0.98550609  0.35075428  0.70160077    -0.72300
O2636       O  0.98311246  0.34838679  0.79827058    -0.72300
O2637       O  0.68357420  0.65158991  0.79827817    -0.72300
O2638       O  0.68115836  0.64918780  0.70160748    -0.72300
O2639       O  0.73092509  0.36559718  0.74892671    -0.72200
O2640       O  0.96761244  0.60228908  0.75092034    -0.72400
V2641       V  0.98474181  0.34877568  0.74993403     1.35200
V2642       V  0.68193348  0.65118338  0.74994271     1.35200
C2643       C  0.93528467  0.60193984  0.74992448     0.77000
C2644       C  0.73138468  0.39802249  0.74993201     0.77100
C2645       C  0.99997128  0.66665099  0.68524608     0.77000
C2646       C  0.00002133  0.66663714  0.81468287     0.76900
O2647       O  0.98547810  0.51745995  0.70159579    -0.72200
O2648       O  0.98308654  0.51504230  0.79826918    -0.72400
O2649       O  0.69904485  0.56433782  0.75093575    -0.72300
O2650       O  0.93572891  0.46770987  0.74891535    -0.72300
O2651       O  0.96759786  0.43563403  0.75090859    -0.72300
O2652       O  0.73090877  0.53225882  0.74893571    -0.72300
O2653       O  0.68354352  0.48491097  0.79828127    -0.72200
O2654       O  0.68115061  0.48251748  0.70161097    -0.72400
V2655       V  0.98471370  0.51545462  0.74993121     1.35200
V2656       V  0.68191720  0.48451025  0.74994607     1.35200
C2657       C  0.99998825  0.50002152  0.68523224     0.77000
C2658       C  0.99998076  0.49996055  0.81467434     0.77100
C2659       C  0.73137457  0.56468843  0.74993173     0.77000
C2660       C  0.93527142  0.43528517  0.74990708     0.76900
O2661       O  0.80094699  0.60229864  0.75095267    -0.72200
O2662       O  0.89758816  0.36560762  0.74891119    -0.72400
O2663       O  0.85022147  0.65157925  0.79828633    -0.72300
O2664       O  0.84785765  0.64920356  0.70161234    -0.72300
O2665       O  0.81882684  0.35076570  0.70159333    -0.72300
O2666       O  0.81645320  0.34841617  0.79826175    -0.72300
O2667       O  0.86571708  0.39768065  0.75092229    -0.72200
O2668       O  0.76908590  0.63437905  0.74892055    -0.72400
V2669       V  0.84860748  0.65118582  0.74995007     1.35200
V2670       V  0.81807096  0.34879722  0.74992503     1.35200
C2671       C  0.76861832  0.60194889  0.74993223     0.77000
C2672       C  0.89804415  0.39803135  0.74990979     0.77100
C2673       C  0.83332307  0.66665605  0.81469186     0.77000
C2674       C  0.83336067  0.66665650  0.68525058     0.76900
O2675       O  0.80094572  0.43562658  0.75096767    -0.72200
O2676       O  0.89758780  0.53225534  0.74892759    -0.72400
O2677       O  0.85022564  0.48493361  0.79828576    -0.72300
O2678       O  0.84783276  0.48249054  0.70161020    -0.72300
O2679       O  0.81881650  0.51738096  0.70158366    -0.72300
O2680       O  0.81645173  0.51510228  0.79825957    -0.72300
O2681       O  0.86572153  0.56433382  0.75090102    -0.72200
O2682       O  0.76908046  0.46770387  0.74893621    -0.72400
V2683       V  0.84859885  0.48450887  0.74994702     1.35200
V2684       V  0.81806810  0.51544879  0.74991929     1.35200
C2685       C  0.76861862  0.43527770  0.74994542     0.77000
C2686       C  0.89804943  0.56468295  0.74991274     0.77100
C2687       C  0.83333817  0.50002651  0.81468560     0.77000
C2688       C  0.83331693  0.49991985  0.68524033     0.76900
O2689       O  0.96801084  0.93563433  0.24906829    -0.72200
O2690       O  0.96802858  0.69894558  0.25106289    -0.72400
O2691       O  0.96801493  0.98490980  0.20173181    -0.72300
O2692       O  0.96802016  0.98253977  0.29840230    -0.72300
O2693       O  0.69861958  0.68410836  0.29839315    -0.72300
O2694       O  0.69863699  0.68175657  0.20172677    -0.72300
O2695       O  0.69859724  0.73100674  0.24907022    -0.72200
O2696       O  0.69866079  0.96773276  0.25107188    -0.72400
V2697       V  0.96924556  0.98452014  0.25006907     1.35200
V2698       V  0.69739826  0.68213632  0.25006233     1.35200
C2699       C  0.66669348  0.93530808  0.25006370     0.77000
C2700       C  0.66661139  0.73134264  0.25008069     0.77100
C2701       C  0.99998623  0.99998308  0.18532190     0.77000
C2702       C  0.99998005  0.66666023  0.31475275     0.76900
O2703       O  0.69862738  0.89767563  0.24907453    -0.72200
O2704       O  0.69859155  0.80102082  0.25110267    -0.72400
O2705       O  0.69861173  0.84837914  0.20174754    -0.72300
O2706       O  0.69857965  0.85076145  0.29842396    -0.72300
O2707       O  0.96804056  0.81587172  0.29839936    -0.72300
O2708       O  0.96799473  0.81825446  0.20173057    -0.72300
O2709       O  0.96802637  0.76897443  0.24904766    -0.72200
O2710       O  0.96800217  0.86560161  0.25108755    -0.72400
V2711       V  0.69737027  0.84877710  0.25008847     1.35200
V2712       V  0.96924764  0.81785688  0.25006714     1.35200
C2713       C  0.66665795  0.89804207  0.25007199     0.77000
C2714       C  0.66662488  0.76859854  0.25009620     0.77100
C2715       C  0.66664065  0.83330617  0.18533133     0.77000
C2716       C  0.66662367  0.83332937  0.31477588     0.76900
O2717       O  0.80138279  0.93565467  0.24906933    -0.72200
O2718       O  0.80136670  0.69893351  0.25105971    -0.72400
O2719       O  0.80137240  0.98492019  0.20173303    -0.72300
O2720       O  0.80138971  0.98255424  0.29840592    -0.72300
O2721       O  0.86530946  0.68409670  0.29838816    -0.72300
O2722       O  0.86530796  0.68174123  0.20171557    -0.72300
O2723       O  0.86530775  0.73101172  0.24905088    -0.72200
O2724       O  0.86532460  0.96773443  0.25107845    -0.72400
V2725       V  0.80260632  0.98453387  0.25007095     1.35200
V2726       V  0.86408136  0.68212388  0.25005227     1.35200
C2727       C  0.83336074  0.93530626  0.25007891     0.77000
C2728       C  0.83332894  0.73136252  0.25005020     0.77100
C2729       C  0.83334249  0.99999984  0.18532011     0.77000
C2730       C  0.83334358  0.99999667  0.31476090     0.76900
O2731       O  0.86532132  0.84844417  0.20171324    -0.72200
O2732       O  0.86525770  0.85074232  0.29839814    -0.72400
O2733       O  0.86530801  0.80104953  0.25104135    -0.72300
O2734       O  0.86531004  0.89769107  0.24907726    -0.72300
O2735       O  0.80136722  0.86562132  0.25105775    -0.72300
O2736       O  0.80136760  0.76897635  0.24901828    -0.72300
O2737       O  0.80135280  0.81586024  0.29837440    -0.72200
O2738       O  0.80138065  0.81828429  0.20170305    -0.72400
V2739       V  0.86406793  0.84879967  0.25005771     1.35200
V2740       V  0.80259927  0.81786718  0.25003876     1.35200
C2741       C  0.83335222  0.83336998  0.18529519     0.77000
C2742       C  0.83329613  0.83329736  0.31474435     0.77100
C2743       C  0.83334447  0.76862229  0.25003552     0.77000
C2744       C  0.83333524  0.89804662  0.25007567     0.76900
O2745       O  0.68173927  0.69865848  0.46493226    -0.72200
O2746       O  0.68414530  0.69862265  0.36825783    -0.72400
O2747       O  0.96772393  0.69864040  0.41562276    -0.72300
O2748       O  0.73103482  0.69864042  0.41761819    -0.72300
O2749       O  0.69894095  0.96798341  0.41555290    -0.72300
O2750       O  0.93564849  0.96803173  0.41763142    -0.72300
O2751       O  0.98253083  0.96803737  0.36827550    -0.72200
O2752       O  0.98493903  0.96803239  0.46494625    -0.72400
V2753       V  0.68215151  0.69741735  0.41659222     1.35200
V2754       V  0.98452986  0.96926088  0.41660865     1.35200
C2755       C  0.66666319  0.66668693  0.48134495     0.77000
C2756       C  0.66667941  0.66666601  0.35190812     0.77100
C2757       C  0.93530308  0.66667070  0.41662328     0.77000
C2758       C  0.73138320  0.66666145  0.41660274     0.76900
O2759       O  0.69891047  0.80135475  0.41561756    -0.72200
O2760       O  0.93561520  0.80135477  0.41758777    -0.72400
O2761       O  0.98255016  0.80137223  0.36826618    -0.72300
O2762       O  0.98487644  0.80133858  0.46493965    -0.72300
O2763       O  0.68169240  0.86527601  0.46496059    -0.72300
O2764       O  0.68405504  0.86527823  0.36829434    -0.72300
O2765       O  0.96769237  0.86529792  0.41561707    -0.72200
O2766       O  0.73097249  0.86529775  0.41762735    -0.72400
V2767       V  0.98450656  0.80258421  0.41660030     1.35200
V2768       V  0.68208104  0.86405063  0.41662741     1.35200
C2769       C  0.73133148  0.83332443  0.41661857     0.77000
C2770       C  0.93526299  0.83333411  0.41659770     0.77100
C2771       C  0.66661779  0.83332657  0.35193562     0.77000
C2772       C  0.99997434  0.83330749  0.48135504     0.76900
O2773       O  0.76897781  0.96800098  0.41758766    -0.72200
O2774       O  0.86561930  0.96801446  0.41562983    -0.72400
O2775       O  0.81823332  0.96801071  0.46494967    -0.72300
O2776       O  0.81591149  0.96802843  0.36827359    -0.72300
O2777       O  0.85081638  0.69860355  0.36826424    -0.72300
O2778       O  0.84840647  0.69863822  0.46493491    -0.72300
O2779       O  0.89769575  0.69862199  0.41762868    -0.72200
O2780       O  0.80106869  0.69863890  0.41557391    -0.72400
V2781       V  0.81786773  0.96924463  0.41660988     1.35200
V2782       V  0.84881494  0.69739406  0.41659879     1.35200
C2783       C  0.76864048  0.66667604  0.41659507     0.77000
C2784       C  0.89804629  0.66664496  0.41661813     0.77100
C2785       C  0.83333493  0.66666964  0.48134921     0.77000
C2786       C  0.83334831  0.99998484  0.35192066     0.76900
O2787       O  0.76894159  0.80137402  0.41762616    -0.72200
O2788       O  0.86557184  0.80135526  0.41561254    -0.72400
O2789       O  0.81822640  0.80139088  0.46495830    -0.72300
O2790       O  0.81583263  0.80135961  0.36827890    -0.72300
O2791       O  0.85071897  0.86526497  0.36826000    -0.72300
O2792       O  0.84839683  0.86533225  0.46494313    -0.72300
O2793       O  0.89765097  0.86529812  0.41759085    -0.72200
O2794       O  0.80101563  0.86531603  0.41560538    -0.72400
V2795       V  0.81782463  0.80260234  0.41661808     1.35200
V2796       V  0.84876344  0.86407154  0.41659876     1.35200
C2797       C  0.76859009  0.83335093  0.41661503     0.77000
C2798       C  0.89800158  0.83331830  0.41659709     0.77100
C2799       C  0.83331563  0.83336568  0.48136522     0.77000
C2800       C  0.83327795  0.83330558  0.35191119     0.76900
O2801       O  0.69862012  0.68117193  0.03493822    -0.72200
O2802       O  0.69863741  0.68354473  0.13160790    -0.72400
O2803       O  0.69865302  0.96762226  0.08424741    -0.72300
O2804       O  0.69860950  0.73090181  0.08227377    -0.72300
O2805       O  0.96801958  0.69903545  0.08428902    -0.72300
O2806       O  0.96800212  0.93573659  0.08226269    -0.72300
O2807       O  0.96801526  0.98309867  0.13161119    -0.72200
O2808       O  0.96803506  0.98549117  0.03493978    -0.72400
V2809       V  0.69739858  0.68192484  0.08327135     1.35200
V2810       V  0.96925018  0.98472696  0.08327299     1.35200
C2811       C  0.99998911  0.99999339  0.01858648     0.77000
C2812       C  0.66672386  0.00001612  0.14801616     0.77100
C2813       C  0.66667093  0.93529461  0.08325351     0.77000
C2814       C  0.66663630  0.73134979  0.08325594     0.76900
O2815       O  0.69857726  0.84782255  0.03493470    -0.72200
O2816       O  0.69860955  0.85018560  0.13161274    -0.72400
O2817       O  0.69858295  0.80091021  0.08426203    -0.72300
O2818       O  0.69863200  0.89757165  0.08227560    -0.72300
O2819       O  0.96799863  0.86570383  0.08426264    -0.72300
O2820       O  0.96799236  0.76905650  0.08226393    -0.72300
O2821       O  0.96798472  0.81642552  0.13160246    -0.72200
O2822       O  0.96801728  0.81880598  0.03493016    -0.72400
V2823       V  0.69736725  0.84857162  0.08327092     1.35200
V2824       V  0.96922817  0.81804661  0.08326388     1.35200
C2825       C  0.99997171  0.83329802  0.01857974     0.77000
C2826       C  0.99995422  0.83333198  0.14801522     0.77100
C2827       C  0.66660397  0.76858429  0.08325837     0.77000
C2828       C  0.66667595  0.89804872  0.08326813     0.76900
O2829       O  0.80135401  0.98552021  0.03493895    -0.72200
O2830       O  0.80136311  0.98308746  0.13161340    -0.72400
O2831       O  0.80134609  0.69903304  0.08425703    -0.72300
O2832       O  0.80133957  0.93574496  0.08223828    -0.72300
O2833       O  0.86528099  0.96760719  0.08425647    -0.72300
O2834       O  0.86528739  0.73091769  0.08224004    -0.72300
O2835       O  0.86530194  0.68358749  0.13160317    -0.72200
O2836       O  0.86529894  0.68116062  0.03493735    -0.72400
V2837       V  0.80258386  0.98473459  0.08327496     1.35200
V2838       V  0.86407236  0.68194200  0.08326887     1.35200
C2839       C  0.83330297  0.00001175  0.01857796     0.77000
C2840       C  0.83333706  0.99998983  0.14802066     0.77100
C2841       C  0.83331635  0.73136778  0.08324398     0.77000
C2842       C  0.83330302  0.93528077  0.08323510     0.76900
O2843       O  0.86524704  0.84781410  0.03490986    -0.72200
O2844       O  0.86530560  0.85023741  0.13157343    -0.72400
O2845       O  0.86526794  0.80093160  0.08424353    -0.72300
O2846       O  0.86528642  0.89758015  0.08222331    -0.72300
O2847       O  0.80134474  0.86571720  0.08423694    -0.72300
O2848       O  0.80132504  0.76906651  0.08226471    -0.72300
O2849       O  0.80136416  0.81647094  0.13159205    -0.72200
O2850       O  0.80134029  0.81879401  0.03491881    -0.72400
V2851       V  0.86404400  0.84859026  0.08323689     1.35200
V2852       V  0.80257427  0.81806159  0.08325266     1.35200
C2853       C  0.83329203  0.83329821  0.01856166     0.77000
C2854       C  0.83334289  0.83336354  0.14799523     0.77100
C2855       C  0.83329008  0.76860331  0.08324772     0.77000
C2856       C  0.83332268  0.89804389  0.08322540     0.76900
O2857       O  0.68407180  0.98550194  0.96506880    -0.72200
O2858       O  0.68173630  0.98309589  0.86839981    -0.72400
O2859       O  0.73103820  0.69903294  0.91572713    -0.72300
O2860       O  0.96771099  0.93573435  0.91775071    -0.72300
O2861       O  0.93563955  0.96760596  0.91573476    -0.72300
O2862       O  0.69896985  0.73090771  0.91775565    -0.72300
O2863       O  0.98494628  0.68353857  0.86838479    -0.72200
O2864       O  0.98256847  0.68118527  0.96505425    -0.72400
V2865       V  0.68210781  0.98473222  0.91673644     1.35200
V2866       V  0.98455249  0.68193037  0.91672100     1.35200
C2867       C  0.99999172  0.99999066  0.98142899     0.77000
C2868       C  0.99999068  0.99998979  0.85199300     0.77100
C2869       C  0.73139145  0.73136266  0.91674028     0.77000
C2870       C  0.93528597  0.93527606  0.91674616     0.76900
O2871       O  0.68409209  0.81883315  0.96506426    -0.72200
O2872       O  0.68175943  0.81643318  0.86838775    -0.72400
O2873       O  0.73101712  0.86572217  0.91572747    -0.72300
O2874       O  0.96773595  0.76908246  0.91771852    -0.72300
O2875       O  0.93565778  0.80094704  0.91570408    -0.72300
O2876       O  0.69893915  0.89758853  0.91771364    -0.72300
O2877       O  0.98496121  0.85026146  0.86839903    -0.72200
O2878       O  0.98253506  0.84781330  0.96506711    -0.72400
V2879       V  0.68213356  0.81806799  0.91672773     1.35200
V2880       V  0.98454126  0.84860418  0.91673551     1.35200
C2881       C  0.66663429  0.83333369  0.98141252     0.77000
C2882       C  0.00004620  0.83337505  0.85198754     0.77100
C2883       C  0.73136603  0.89805032  0.91672255     0.77000
C2884       C  0.93530742  0.76861850  0.91671367     0.76900
O2885       O  0.85076029  0.98550164  0.96506772    -0.72200
O2886       O  0.84840936  0.98310028  0.86839382    -0.72400
O2887       O  0.89769574  0.69904818  0.91571529    -0.72300
O2888       O  0.80104640  0.93574603  0.91773601    -0.72300
O2889       O  0.76897273  0.96761470  0.91569948    -0.72300
O2890       O  0.86562079  0.73091569  0.91773324    -0.72300
O2891       O  0.81824408  0.68354747  0.86840257    -0.72200
O2892       O  0.81590704  0.68116519  0.96507195    -0.72400
V2893       V  0.84879234  0.98473203  0.91673225     1.35200
V2894       V  0.81787105  0.68192480  0.91673943     1.35200
C2895       C  0.83330350  0.00000330  0.98141613     0.77000
C2896       C  0.83333645  0.99999653  0.85197861     0.77100
C2897       C  0.89804830  0.73137802  0.91672120     0.77000
C2898       C  0.76862133  0.93528592  0.91672071     0.76900
O2899       O  0.81586089  0.84781082  0.96505315    -0.72200
O2900       O  0.81825358  0.85021190  0.86839746    -0.72400
O2901       O  0.76898236  0.80092109  0.91571581    -0.72300
O2902       O  0.86560027  0.89757412  0.91773773    -0.72300
O2903       O  0.89768373  0.86571369  0.91573730    -0.72300
O2904       O  0.80106894  0.76906356  0.91772498    -0.72300
O2905       O  0.84842743  0.81644112  0.86839825    -0.72200
O2906       O  0.85076211  0.81880447  0.96506069    -0.72400
V2907       V  0.81785692  0.84858034  0.91672649     1.35200
V2908       V  0.84880474  0.81805621  0.91673075     1.35200
C2909       C  0.83329894  0.83329795  0.98140920     0.77000
C2910       C  0.83334072  0.83332723  0.85199020     0.77100
C2911       C  0.76864108  0.76859742  0.91672801     0.77000
C2912       C  0.89802956  0.89803949  0.91674306     0.76900
O2913       O  0.68353974  0.69864043  0.53506364    -0.72200
O2914       O  0.68116359  0.69858704  0.63173506    -0.72400
O2915       O  0.73090717  0.69862215  0.58439442    -0.72300
O2916       O  0.96760764  0.69864263  0.58236559    -0.72300
O2917       O  0.93573540  0.96804367  0.58437880    -0.72300
O2918       O  0.69904127  0.96802831  0.58244236    -0.72300
O2919       O  0.98545115  0.96806492  0.63173873    -0.72200
O2920       O  0.98312286  0.96804013  0.53506603    -0.72400
V2921       V  0.68191854  0.69738295  0.58340096     1.35200
V2922       V  0.98471880  0.96927856  0.58340386     1.35200
C2923       C  0.66665805  0.66667583  0.51864355     0.77000
C2924       C  0.66662254  0.00002106  0.64808573     0.77100
C2925       C  0.73137024  0.66665697  0.58339862     0.77000
C2926       C  0.93528159  0.66666427  0.58337472     0.76900
O2927       O  0.73088857  0.86529289  0.58441174    -0.72200
O2928       O  0.96761059  0.86528581  0.58240744    -0.72400
O2929       O  0.68113079  0.86528204  0.63172136    -0.72300
O2930       O  0.68352877  0.86527387  0.53506152    -0.72300
O2931       O  0.98309765  0.80133701  0.53506883    -0.72300
O2932       O  0.98549850  0.80136096  0.63174078    -0.72300
O2933       O  0.93574051  0.80134423  0.58441708    -0.72200
O2934       O  0.69902691  0.80135026  0.58240214    -0.72400
V2935       V  0.68189963  0.86404979  0.58339266     1.35200
V2936       V  0.98473126  0.80257815  0.58340731     1.35200
C2937       C  0.73135383  0.83332937  0.58341711     0.77000
C2938       C  0.93527887  0.83331119  0.58341894     0.77100
C2939       C  0.00000787  0.83331391  0.64809530     0.77000
C2940       C  0.99998525  0.83330727  0.51865500     0.76900
O2941       O  0.85021602  0.69864006  0.53505789    -0.72200
O2942       O  0.84784395  0.69860828  0.63173114    -0.72400
O2943       O  0.89758478  0.69864592  0.58438721    -0.72300
O2944       O  0.80093538  0.69861918  0.58239719    -0.72300
O2945       O  0.76906646  0.96802132  0.58443625    -0.72300
O2946       O  0.86571432  0.96804646  0.58238570    -0.72300
O2947       O  0.81883478  0.96805688  0.63174087    -0.72200
O2948       O  0.81640919  0.96802277  0.53507344    -0.72400
V2949       V  0.84859462  0.69739692  0.58339484     1.35200
V2950       V  0.81805631  0.96926849  0.58340969     1.35200
C2951       C  0.83329271  0.99999014  0.51865752     0.77000
C2952       C  0.83333587  0.00001058  0.64809363     0.77100
C2953       C  0.89804921  0.66668336  0.58337411     0.77000
C2954       C  0.76860990  0.66663950  0.58340505     0.76900
O2955       O  0.85022156  0.86532703  0.53509305    -0.72200
O2956       O  0.84780034  0.86525851  0.63176880    -0.72400
O2957       O  0.89757393  0.86530318  0.58444732    -0.72300
O2958       O  0.80092135  0.86529166  0.58242642    -0.72300
O2959       O  0.76905932  0.80134926  0.58443229    -0.72300
O2960       O  0.86570818  0.80136343  0.58239600    -0.72300
O2961       O  0.81881412  0.80135412  0.63175112    -0.72200
O2962       O  0.81642265  0.80138675  0.53507493    -0.72400
V2963       V  0.84858013  0.86406394  0.58343514     1.35200
V2964       V  0.81805120  0.80259504  0.58341482     1.35200
C2965       C  0.83332129  0.83336389  0.51866963     0.77000
C2966       C  0.83330415  0.83330116  0.64811563     0.77100
C2967       C  0.89803843  0.83333842  0.58342410     0.77000
C2968       C  0.76859354  0.83331220  0.58342974     0.76900
O2969       O  0.93571332  0.96772671  0.74895070    -0.72200
O2970       O  0.69905926  0.73100605  0.75094858    -0.72400
O2971       O  0.98546796  0.68409269  0.70161245    -0.72300
O2972       O  0.98313343  0.68172587  0.79827952    -0.72300
O2973       O  0.68356252  0.98491172  0.79826429    -0.72300
O2974       O  0.68114635  0.98256827  0.70158949    -0.72300
O2975       O  0.73092311  0.69892660  0.74893102    -0.72200
O2976       O  0.96758212  0.93565179  0.75094888    -0.72400
V2977       V  0.98473521  0.68211426  0.74994442     1.35200
V2978       V  0.68192373  0.98453240  0.74992465     1.35200
C2979       C  0.93525363  0.93529976  0.74994806     0.77000
C2980       C  0.73138548  0.73135311  0.74994494     0.77100
C2981       C  0.99995636  0.00001590  0.68525462     0.77000
C2982       C  0.99998496  0.99999554  0.81469509     0.76900
O2983       O  0.98549957  0.85076214  0.70160653    -0.72200
O2984       O  0.98314779  0.84844281  0.79827688    -0.72400
O2985       O  0.69903844  0.89768205  0.75093305    -0.72300
O2986       O  0.93576565  0.80105268  0.74895550    -0.72300
O2987       O  0.96763585  0.76898031  0.75097272    -0.72300
O2988       O  0.73091442  0.86561465  0.74891852    -0.72300
O2989       O  0.68355831  0.81822971  0.79824979    -0.72200
O2990       O  0.68117487  0.81590706  0.70157974    -0.72400
V2991       V  0.98475330  0.84880445  0.74993974     1.35200
V2992       V  0.68193420  0.81786291  0.74991084     1.35200
C2993       C  0.00000694  0.83331459  0.68525459     0.77000
C2994       C  0.00004763  0.83337345  0.81469104     0.77100
C2995       C  0.73136909  0.89803728  0.74992500     0.77000
C2996       C  0.93530524  0.76862577  0.74996301     0.76900
O2997       O  0.80092988  0.93564339  0.75094168    -0.72200
O2998       O  0.89760164  0.69893508  0.74895393    -0.72400
O2999       O  0.85021850  0.98491433  0.79826947    -0.72300
O3000       O  0.84782082  0.98254921  0.70160471    -0.72300
O3001       O  0.81886093  0.68411203  0.70160301    -0.72300
O3002       O  0.81643232  0.68173257  0.79827503    -0.72300
O3003       O  0.86573700  0.73101330  0.75095818    -0.72200
O3004       O  0.76906309  0.96772011  0.74892999    -0.72400
V3005       V  0.84858373  0.98452655  0.74993493     1.35200
V3006       V  0.81807917  0.68212740  0.74993790     1.35200
C3007       C  0.76860222  0.93529419  0.74993068     0.77000
C3008       C  0.89806614  0.73136431  0.74995853     0.77100
C3009       C  0.83332739  0.99999172  0.81468345     0.77000
C3010       C  0.83332635  0.00000716  0.68525100     0.76900
O3011       O  0.80094862  0.76896424  0.75098279    -0.72200
O3012       O  0.89757259  0.86561472  0.74894315    -0.72400
O3013       O  0.85023930  0.81826091  0.79829237    -0.72300
O3014       O  0.84781427  0.81585626  0.70163032    -0.72300
O3015       O  0.81880413  0.85075300  0.70163038    -0.72300
O3016       O  0.81642507  0.84838944  0.79829586    -0.72300
O3017       O  0.86569001  0.89767488  0.75096884    -0.72200
O3018       O  0.76907066  0.80102958  0.74895934    -0.72400
V3019       V  0.84859443  0.81785590  0.74996177     1.35200
V3020       V  0.81804766  0.84878034  0.74996310     1.35200
C3021       C  0.76861780  0.76860787  0.74996265     0.77000
C3022       C  0.89802299  0.89803662  0.74995144     0.77100
C3023       C  0.83333564  0.83332692  0.81470205     0.77000
C3024       C  0.83330240  0.83329780  0.68527530     0.76900
loop_ 
_geom_bond_atom_site_label_1 
_geom_bond_atom_site_label_2 
_geom_bond_distance 
_geom_bond_site_symmetry_2 
_ccdc_geom_bond_type 
O1            V9   1.895       .  S
O1         C1019   1.263       .  A
O2          V681   1.899   1_545  S
O2         C1020   1.264       .  A
O3            V9   1.899       .  S
O3           C13   1.264       .  A
O4            V9   1.899       .  S
O4          C350   1.263       .  A
O5           V10   1.899       .  S
O5         C2030   1.263   1_445  A
O6           V10   1.899       .  S
O6         C2701   1.264   1_445  A
O7           V10   1.895       .  S
O7           C12   1.263   1_455  A
O8          V346   1.899       .  S
O8           C11   1.264       .  A
V9          O338   1.899       .  S
V9         V1354   2.089       .  T
V10         O680   1.899   1_545  S
V10        V2697   2.089   1_445  T
C11        O2017   1.263   1_455  A
C11          C25   1.462   1_455  S
C12        O2018   1.264       .  A
C12          C26   1.462   1_655  S
C13        O1350   1.264       .  A
C13        C1132   1.465       .  S
C14         O676   1.263       .  A
C14        O1013   1.263   1_565  A
C14        C1076   1.459   1_565  S
O15          V23   1.895       .  S
O15          C25   1.263   1_455  A
O16          V23   1.899       .  S
O16          C26   1.264       .  A
O17          V23   1.899       .  S
O17          C27   1.264       .  A
O18          V23   1.899       .  S
O18          C28   1.263   1_455  A
O19          V24   1.899       .  S
O19        C1036   1.263       .  A
O20          V24   1.899       .  S
O20        C1035   1.264       .  A
O21          V24   1.895       .  S
O21        C1034   1.263       .  A
O22          V24   1.899       .  S
O22        C1033   1.264       .  A
V23        V2040   2.089   1_455  T
V24        V1031   2.089       .  T
C25        O2038   1.264       .  A
C26        O2037   1.263   1_455  A
C27        O2036   1.264   1_455  A
C27        C2154   1.465       .  S
C28        O2035   1.263       .  A
C28          C83   1.459       .  S
O29          V37   1.896       .  S
O29          C39   1.263       .  A
O30         V709   1.899   1_545  S
O30          C40   1.264       .  A
O31          V37   1.899       .  S
O31          C41   1.264       .  A
O32          V37   1.900       .  S
O32          C42   1.263       .  A
O33          V38   1.900       .  S
O33         C714   1.263       .  A
O34          V38   1.899       .  S
O34         C713   1.264       .  A
O35          V38   1.895       .  S
O35          C40   1.263       .  A
O36         V374   1.899       .  S
O36          C39   1.264       .  A
V37         O366   1.899       .  S
V37         V374   2.089       .  T
V38         O708   1.899   1_545  S
V38         V709   2.089   1_545  T
C39          C56   1.462       .  S
C40          C55   1.462       .  S
C41         O370   1.264       .  A
C41         C152   1.465       .  S
C42         O369   1.263       .  A
C42          C98   1.460       .  S
O43          V51   1.899       .  S
O43          C53   1.264       .  A
O44          V51   1.900       .  S
O44          C54   1.263       .  A
O45          V51   1.899       .  S
O45          C55   1.264       .  A
O46          V51   1.895       .  S
O46          C56   1.263       .  A
O47          V52   1.899       .  S
O47          C56   1.264       .  A
O48          V52   1.895       .  S
O48          C55   1.263       .  A
O49          V52   1.900       .  S
O49          C54   1.263       .  A
O50          V52   1.899       .  S
O50          C53   1.264       .  A
V51          V52   2.089       .  T
C53         C166   1.465       .  S
C54         C112   1.460       .  S
O57          V65   1.899       .  S
O57          C67   1.264       .  A
O58          V65   1.899       .  S
O58          C68   1.263   1_445  A
O59        V1073   1.899       .  S
O59          C69   1.264       .  A
O60          V65   1.895       .  S
O60          C70   1.263   1_545  A
O61        V2082   1.899   1_455  S
O61         C406   1.264       .  A
O62          V66   1.895       .  S
O62         C405   1.263       .  A
O63          V66   1.900       .  S
O63        C1412   1.263       .  A
O64          V66   1.899       .  S
O64        C1411   1.264       .  A
V65        O2075   1.899   1_455  S
V65        V2754   2.089   1_445  T
V66        O1069   1.899       .  S
V66        V1409   2.089       .  T
C67        O2752   1.264   1_445  A
C67         C235   1.465       .  S
C68        O2751   1.263       .  A
C68        C2030   1.459       .  S
C69         O734   1.263   1_545  A
C69          C96   1.462       .  S
C70         O733   1.264       .  A
C70          C95   1.462   1_565  S
O71        V2095   1.899   1_455  S
O71          C81   1.264       .  A
O72          V79   1.896       .  S
O72          C82   1.263       .  A
O73          V79   1.899       .  S
O73        C1091   1.263       .  A
O74          V79   1.899       .  S
O74          C84   1.264       .  A
O75          V80   1.899       .  S
O75        C2100   1.264   1_455  A
O76          V80   1.900       .  S
O76          C83   1.263   1_455  A
O77        V1088   1.899       .  S
O77          C82   1.264       .  A
O78          V80   1.896       .  S
O78          C81   1.263       .  A
V79        O1079   1.899       .  S
V79        V1088   2.089       .  T
V80        O2093   1.899   1_455  S
V80        V2095   2.089   1_455  T
C81         C109   1.462       .  S
C82         C110   1.462       .  S
C83        O2089   1.263       .  A
C84        O1083   1.264       .  A
C84         C252   1.465       .  S
O85          V93   1.896       .  S
O85         C431   1.263       .  A
O86          V93   1.899       .  S
O86         C432   1.264       .  A
O87          V93   1.899       .  S
O87         C433   1.264       .  A
O88          V93   1.899       .  S
O88          C98   1.263       .  A
O89          V94   1.900       .  S
O89         C770   1.263       .  A
O90          V94   1.899       .  S
O90          C97   1.264   1_545  A
O91          V94   1.896       .  S
O91          C96   1.263       .  A
O92          V94   1.899       .  S
O92          C95   1.264       .  A
V93         V430   2.089       .  T
V94         V765   2.089   1_545  T
C95         O757   1.263   1_545  A
C96         O758   1.264   1_545  A
C97         O759   1.264       .  A
C97         C935   1.465       .  S
C98         O425   1.263       .  A
O99         V107   1.896       .  S
O99         C109   1.263       .  A
O100        V107   1.899       .  S
O100        C110   1.264       .  A
O101        V107   1.899       .  S
O101        C111   1.264       .  A
O102        V107   1.899       .  S
O102        C112   1.263       .  A
O103        V108   1.900       .  S
O103        C112   1.263       .  A
O104        V108   1.899       .  S
O104        C111   1.264       .  A
O105        V108   1.896       .  S
O105        C110   1.263       .  A
O106        V108   1.900       .  S
O106        C109   1.264       .  A
V107        V108   2.089       .  T
C111        C277   1.465       .  S
O113        V121   1.899       .  S
O113       C2811   1.263   1_445  A
O114        V121   1.899       .  S
O114        C796   1.264   1_445  A
O115        V457   1.895       .  S
O115        C125   1.263   1_455  A
O116        V121   1.899       .  S
O116        C126   1.264       .  A
O117        V794   1.895   1_545  S
O117       C1134   1.263       .  A
O118        V122   1.899       .  S
O118       C1133   1.264       .  A
O119        V122   1.899       .  S
O119       C1132   1.264       .  A
O120        V122   1.900       .  S
O120        C123   1.263       .  A
V121        O787   1.895   1_545  S
V121       V2810   2.089   1_445  T
V122        O453   1.895       .  S
V122       V1465   2.089       .  T
C123       O1457   1.263       .  A
C123        C179   1.459   1_554  S
C124        O450   1.264   1_655  A
C124       O2135   1.264       .  A
C124       C2029   1.465       .  S
C125       O2134   1.264       .  A
C125        C140   1.462   1_655  S
C126       O2133   1.263   1_455  A
C126        C139   1.462   1_455  S
O127        V135   1.899       .  S
O127       C2153   1.263   1_455  A
O128        V135   1.899       .  S
O128       C2154   1.264       .  A
O129        V135   1.895       .  S
O129        C139   1.263   1_455  A
O130        V135   1.899       .  S
O130        C140   1.264       .  A
O131        V136   1.896       .  S
O131       C1148   1.263       .  A
O132        V136   1.899       .  S
O132       C1147   1.264       .  A
O133        V136   1.899       .  S
O133        C138   1.264       .  A
O134        V136   1.899       .  S
O134        C137   1.263       .  A
V135       V2152   2.089   1_455  T
V136       V1143   2.089       .  T
C137       O1135   1.263       .  A
C137       C1201   1.459   1_554  S
C138       O1136   1.264       .  A
C138       C1035   1.465       .  S
C139       O2148   1.264       .  A
C140       O2147   1.263   1_455  A
O141        V149   1.899       .  S
O141        C151   1.263       .  A
O142        V149   1.899       .  S
O142        C152   1.264       .  A
O143        V821   1.895   1_545  S
O143        C153   1.263       .  A
O144        V149   1.899       .  S
O144        C154   1.264       .  A
O145        V486   1.896       .  S
O145        C154   1.263       .  A
O146        V150   1.899       .  S
O146        C153   1.264       .  A
O147        V150   1.899       .  S
O147        C824   1.264       .  A
O148        V150   1.899       .  S
O148        C823   1.263   1_545  A
V149        O479   1.896       .  S
V149        V486   2.089       .  T
V150        O817   1.895   1_545  S
V150        V821   2.089   1_545  T
C151        O484   1.263       .  A
C151        C207   1.459   1_554  S
C152        O483   1.264       .  A
C153        C167   1.462       .  S
C154        C168   1.462       .  S
O155        V163   1.899       .  S
O155        C165   1.263       .  A
O156        V163   1.899       .  S
O156        C166   1.264       .  A
O157        V163   1.895       .  S
O157        C167   1.263       .  A
O158        V163   1.899       .  S
O158        C168   1.264       .  A
O159        V164   1.895       .  S
O159        C168   1.263       .  A
O160        V164   1.899       .  S
O160        C167   1.264       .  A
O161        V164   1.899       .  S
O161        C166   1.264       .  A
O162        V164   1.899       .  S
O162        C165   1.263       .  A
V163        V164   2.089       .  T
C165        C221   1.459   1_554  S
O169        V177   1.899       .  S
O169       C2195   1.263       .  A
O170        V177   1.899       .  S
O170       C2196   1.264       .  A
O171        V849   1.895   1_545  S
O171        C181   1.263       .  A
O172       V1185   1.899       .  S
O172        C182   1.264       .  A
O173        V514   1.895       .  S
O173        C182   1.263       .  A
O174       V2194   1.899   1_455  S
O174        C181   1.264       .  A
O175        V178   1.899       .  S
O175        C852   1.264   1_545  A
O176        V178   1.899       .  S
O176        C851   1.263   1_545  A
V177        O507   1.896       .  S
V177       O2188   1.899   1_455  S
V177       V2530   2.089   1_455  T
V178        O845   1.895   1_545  S
V178       O1182   1.899       .  S
V178       V1857   2.089   1_545  T
C179       O1177   1.263       .  A
C179        O512   1.263       .  A
C180       O1178   1.264       .  A
C180        O511   1.264       .  A
C180        C294   1.465       .  S
C181        C223   1.462       .  S
C182        C224   1.462       .  S
O183        V191   1.899       .  S
O183        C193   1.263   1_455  A
O184        V191   1.899       .  S
O184       C2210   1.264   1_455  A
O185        V191   1.895       .  S
O185        C195   1.263       .  A
O186       V1199   1.899       .  S
O186        C196   1.264       .  A
O187        V192   1.895       .  S
O187        C196   1.263       .  A
O188       V2208   1.899   1_455  S
O188        C195   1.264       .  A
O189        V192   1.899       .  S
O189        C194   1.264       .  A
O190        V192   1.899       .  S
O190       C1201   1.263       .  A
V191       O2202   1.899   1_455  S
V191       V2208   2.089   1_455  T
V192       O1196   1.899       .  S
V192       V1199   2.089       .  T
C193       O2206   1.263       .  A
C193       C2153   1.459   1_556  S
C194       O1192   1.264       .  A
C194        C306   1.465       .  S
C195        C210   1.462       .  S
C196        C209   1.462       .  S
O197        V205   1.899       .  S
O197        C207   1.263       .  A
O198        V205   1.899       .  S
O198        C208   1.264       .  A
O199        V877   1.895   1_545  S
O199        C209   1.263       .  A
O200        V205   1.899       .  S
O200        C210   1.264       .  A
O201        V542   1.895       .  S
O201        C210   1.263       .  A
O202        V206   1.899       .  S
O202        C209   1.264       .  A
O203        V206   1.899       .  S
O203        C880   1.264   1_545  A
O204        V206   1.900       .  S
O204        C879   1.263   1_545  A
V205        O535   1.896       .  S
V205        V542   2.089       .  T
V206        O873   1.895   1_545  S
V206        V877   2.089   1_545  T
C207        O540   1.263       .  A
C208        O539   1.264       .  A
C208        C321   1.465       .  S
O211        V219   1.899       .  S
O211        C221   1.263       .  A
O212        V219   1.899       .  S
O212        C222   1.264       .  A
O213        V219   1.896       .  S
O213        C223   1.263       .  A
O214        V219   1.899       .  S
O214        C224   1.264       .  A
O215        V220   1.896       .  S
O215        C224   1.263       .  A
O216        V220   1.899       .  S
O216        C223   1.264       .  A
O217        V220   1.899       .  S
O217        C222   1.264       .  A
O218        V220   1.899       .  S
O218        C221   1.263       .  A
V219        V220   2.089       .  T
C222        C335   1.465       .  S
O225        V233   1.899       .  S
O225        C235   1.264       .  A
O226        V233   1.900       .  S
O226        C908   1.263   1_455  A
O227        V233   1.899       .  S
O227        C237   1.264       .  A
O228       V1241   1.896       .  S
O228        C238   1.263   1_545  A
O229        V234   1.899       .  S
O229        C574   1.264       .  A
O230       V2250   1.895   1_455  S
O230        C573   1.263       .  A
O231        V234   1.900       .  S
O231       C1244   1.263       .  A
O232        V234   1.899       .  S
O232       C1579   1.264       .  A
V233       O2244   1.896   1_455  S
V233       V2922   2.089   1_445  T
V234       O1238   1.895       .  S
V234       V1577   2.089       .  T
C235       O2920   1.264   1_445  A
C236        O562   1.263   1_655  A
C236       O2247   1.263       .  A
C236       C2309   1.459   1_655  S
C237        O902   1.263   1_545  A
C237        C266   1.462   1_545  S
C238        O901   1.264       .  A
C238        C265   1.462       .  S
O239        V247   1.899       .  S
O239        C249   1.264       .  A
O240       V1255   1.895       .  S
O240        C250   1.263       .  A
O241        V247   1.900       .  S
O241       C2267   1.263   1_455  A
O242        V247   1.899       .  S
O242       C2268   1.264   1_455  A
O243        V248   1.899       .  S
O243        C252   1.264       .  A
O244        V248   1.900       .  S
O244        C251   1.263       .  A
O245        V248   1.899       .  S
O245        C250   1.264       .  A
O246       V2264   1.896   1_455  S
O246        C249   1.263       .  A
V247       O2256   1.896   1_455  S
V247       V2264   2.089   1_455  T
V248       O1254   1.895       .  S
V248       V1255   2.089       .  T
C249        C280   1.462       .  S
C250        C279   1.462       .  S
C251       O1249   1.263       .  A
C251        C305   1.460       .  S
C252       O1250   1.264       .  A
O253        V261   1.899       .  S
O253        C935   1.264   1_545  A
O254        V261   1.899       .  S
O254        C936   1.263   1_545  A
O255        V261   1.899       .  S
O255        C265   1.264   1_545  A
O256        V261   1.895       .  S
O256        C266   1.263   1_545  A
O257        V262   1.899       .  S
O257        C602   1.264       .  A
O258        V262   1.895       .  S
O258        C601   1.263       .  A
O259        V262   1.900       .  S
O259        C264   1.263       .  A
O260        V262   1.899       .  S
O260        C263   1.264       .  A
V261        V934   2.089   1_545  T
V262        V597   2.089       .  T
C263        O589   1.264       .  A
C263        C433   1.465       .  S
C264        O590   1.263       .  A
C264        C322   1.460       .  S
C265        O930   1.263       .  A
C266        O929   1.264       .  A
O267        V275   1.899       .  S
O267        C277   1.264       .  A
O268        V275   1.899       .  S
O268        C278   1.263       .  A
O269        V275   1.899       .  S
O269        C279   1.264       .  A
O270        V275   1.896       .  S
O270        C280   1.263       .  A
O271        V276   1.899       .  S
O271        C280   1.264       .  A
O272        V276   1.895       .  S
O272        C279   1.263       .  A
O273        V276   1.900       .  S
O273        C278   1.263       .  A
O274        V276   1.899       .  S
O274        C277   1.264       .  A
V275        V276   2.089       .  T
C278        C336   1.459       .  S
O281        V625   1.899       .  S
O281        C291   1.264       .  A
O282       V2305   1.896   1_455  S
O282        C292   1.263       .  A
O283        V289   1.899       .  S
O283        C965   1.263       .  A
O284        V289   1.899       .  S
O284        C966   1.264   1_545  A
O285        V290   1.899       .  S
O285       C2310   1.264       .  A
O286        V290   1.900       .  S
O286       C2309   1.263       .  A
O287        V962   1.899   1_545  S
O287        C292   1.264       .  A
O288       V1298   1.895       .  S
O288        C291   1.263       .  A
V289        O953   1.899   1_545  S
V289       O1290   1.896       .  S
V289       V1970   2.089   1_545  T
V290        O623   1.899       .  S
V290       O2304   1.895   1_455  S
V290       V2641   2.089   1_455  T
C291        C334   1.462       .  S
C292        C333   1.462       .  S
C293        O619   1.263       .  A
C293       O1294   1.263       .  A
C293       C1244   1.460       .  S
C294        O620   1.264       .  A
C294       O1293   1.264       .  A
O295        V303   1.900       .  S
O295        C305   1.263       .  A
O296        V303   1.899       .  S
O296        C306   1.264       .  A
O297       V2319   1.895   1_455  S
O297        C307   1.263       .  A
O298        V303   1.899       .  S
O298        C308   1.264       .  A
O299       V1312   1.895       .  S
O299        C308   1.263       .  A
O300        V304   1.899       .  S
O300        C307   1.264       .  A
O301        V304   1.899       .  S
O301       C2322   1.264   1_455  A
O302        V304   1.900       .  S
O302       C2321   1.263       .  A
V303       O1305   1.895       .  S
V303       V1312   2.089       .  T
V304       O2315   1.895   1_455  S
V304       V2319   2.089   1_455  T
C305       O1310   1.263       .  A
C306       O1309   1.264       .  A
C307        C319   1.462       .  S
C308        C320   1.462       .  S
O309        V317   1.896       .  S
O309        C319   1.263       .  A
O310        V989   1.899   1_545  S
O310        C320   1.264       .  A
O311        V317   1.899       .  S
O311        C321   1.264       .  A
O312        V317   1.900       .  S
O312        C322   1.263       .  A
O313        V318   1.899       .  S
O313        C994   1.263   1_545  A
O314        V318   1.899       .  S
O314        C993   1.264   1_545  A
O315        V318   1.895       .  S
O315        C320   1.263       .  A
O316        V654   1.899       .  S
O316        C319   1.264       .  A
V317        O646   1.899       .  S
V317        V654   2.089       .  T
V318        O988   1.899   1_545  S
V318        V989   2.089   1_545  T
C321        O650   1.264       .  A
C322        O649   1.263       .  A
O323        V331   1.895       .  S
O323        C333   1.263       .  A
O324        V331   1.899       .  S
O324        C334   1.264       .  A
O325        V331   1.899       .  S
O325        C335   1.264       .  A
O326        V331   1.899       .  S
O326        C336   1.263       .  A
O327        V332   1.900       .  S
O327        C336   1.263       .  A
O328        V332   1.899       .  S
O328        C335   1.264       .  A
O329        V332   1.895       .  S
O329        C334   1.263       .  A
O330        V332   1.899       .  S
O330        C333   1.264       .  A
V331        V332   2.089       .  T
O337        V345   1.895       .  S
O337       C1355   1.263       .  A
O338       C1356   1.264       .  A
O339        V345   1.899       .  S
O339        C349   1.264       .  A
O340        V345   1.900       .  S
O340        C686   1.263       .  A
O341        V346   1.899       .  S
O341       C2366   1.263       .  A
O342        V346   1.899       .  S
O342       C2029   1.264   1_455  A
O343        V346   1.895       .  S
O343        C348   1.263   1_455  A
O344        V682   1.899       .  S
O344        C347   1.264   1_455  A
V345        O674   1.899       .  S
V345       V1690   2.089       .  T
V346       V2025   2.089   1_455  T
C347       O2353   1.263       .  A
C347        C361   1.462       .  S
C348       O2354   1.264       .  A
C348        C362   1.462       .  S
C349       O1686   1.264       .  A
C349       C1468   1.465       .  S
C350       O1349   1.263       .  A
C350       C1412   1.459       .  S
O351        V359   1.895       .  S
O351        C361   1.263   1_455  A
O352        V359   1.899       .  S
O352        C362   1.264   1_455  A
O353        V359   1.899       .  S
O353        C363   1.264   1_455  A
O354        V359   1.899       .  S
O354        C364   1.263       .  A
O355        V360   1.900       .  S
O355       C1372   1.263       .  A
O356        V360   1.899       .  S
O356       C1371   1.264       .  A
O357        V360   1.895       .  S
O357       C1370   1.263       .  A
O358        V360   1.899       .  S
O358       C1369   1.264       .  A
V359       V2376   2.089   1_455  T
V360       V1367   2.089       .  T
C361       O2374   1.264       .  A
C362       O2373   1.263       .  A
C363       O2372   1.264       .  A
C363       C2490   1.465       .  S
C364       O2371   1.263   1_455  A
C364        C419   1.459       .  S
O365        V373   1.895       .  S
O365        C375   1.263       .  A
O366        C376   1.264       .  A
O367        V373   1.899       .  S
O367        C377   1.264       .  A
O368        V373   1.900       .  S
O368        C378   1.263       .  A
O369        V374   1.900       .  S
O370        V374   1.899       .  S
O371        V374   1.896       .  S
O371        C376   1.263       .  A
O372        V710   1.899       .  S
O372        C375   1.264       .  A
V373        O702   1.899       .  S
V373        V710   2.089       .  T
C375        C392   1.462       .  S
C376        C391   1.462       .  S
C377        O706   1.264       .  A
C377        C488   1.465       .  S
C378        O705   1.263       .  A
C378        C434   1.460       .  S
O379        V387   1.899       .  S
O379        C389   1.264       .  A
O380        V387   1.900       .  S
O380        C390   1.263       .  A
O381        V387   1.899       .  S
O381        C391   1.264       .  A
O382        V387   1.896       .  S
O382        C392   1.263       .  A
O383        V388   1.899       .  S
O383        C392   1.264       .  A
O384        V388   1.896       .  S
O384        C391   1.263       .  A
O385        V388   1.900       .  S
O385        C390   1.263       .  A
O386        V388   1.899       .  S
O386        C389   1.264       .  A
V387        V388   2.089       .  T
C389        C502   1.465       .  S
C390        C448   1.460       .  S
O393        V401   1.899       .  S
O393        C403   1.264   1_455  A
O394        V401   1.900       .  S
O394        C404   1.263       .  A
O395       V1409   1.899       .  S
O395        C405   1.264       .  A
O396        V401   1.896       .  S
O396        C406   1.263       .  A
O397       V2418   1.899   1_455  S
O397        C742   1.264       .  A
O398        V402   1.895       .  S
O398        C741   1.263       .  A
O399        V402   1.899       .  S
O399       C1748   1.263       .  A
O400        V402   1.899       .  S
O400       C1747   1.264       .  A
V401       O2411   1.899   1_455  S
V401       V2082   2.089   1_455  T
V402       O1405   1.899       .  S
V402       V1745   2.089       .  T
C403       O2080   1.264       .  A
C403        C571   1.465       .  S
C404       O2079   1.263   1_455  A
C404       C2366   1.460       .  S
C405        C432   1.462       .  S
C406        C431   1.462       .  S
O407       V2431   1.899   1_455  S
O407        C417   1.264       .  A
O408        V415   1.895       .  S
O408        C418   1.263       .  A
O409        V415   1.899       .  S
O409       C1427   1.263       .  A
O410        V415   1.899       .  S
O410        C420   1.264       .  A
O411        V416   1.899       .  S
O411       C2436   1.264       .  A
O412        V416   1.899       .  S
O412        C419   1.263       .  A
O413       V1424   1.899       .  S
O413        C418   1.264       .  A
O414        V416   1.895       .  S
O414        C417   1.263       .  A
V415       O1415   1.899       .  S
V415       V1424   2.089       .  T
V416       O2429   1.899   1_455  S
V416       V2431   2.089   1_455  T
C417        C445   1.462       .  S
C418        C446   1.462       .  S
C419       O2425   1.263   1_455  A
C420       O1419   1.264       .  A
C420        C588   1.465       .  S
O421        V429   1.895       .  S
O421        C767   1.263       .  A
O422        V429   1.899       .  S
O422        C768   1.264       .  A
O423        V429   1.899       .  S
O423        C769   1.264       .  A
O424        V429   1.900       .  S
O424        C434   1.263       .  A
O425        V430   1.900       .  S
O426        V430   1.899       .  S
O426        C433   1.264       .  A
O427        V430   1.895       .  S
O427        C432   1.263       .  A
O428        V430   1.899       .  S
O428        C431   1.264       .  A
V429        V766   2.089       .  T
C434        O761   1.263       .  A
O435        V443   1.896       .  S
O435        C445   1.263       .  A
O436        V443   1.899       .  S
O436        C446   1.264       .  A
O437        V443   1.899       .  S
O437        C447   1.264       .  A
O438        V443   1.900       .  S
O438        C448   1.263       .  A
O439        V444   1.900       .  S
O439        C448   1.263       .  A
O440        V444   1.899       .  S
O440        C447   1.264       .  A
O441        V444   1.895       .  S
O441        C446   1.263       .  A
O442        V444   1.899       .  S
O442        C445   1.264       .  A
V443        V444   2.089       .  T
C447        C613   1.465       .  S
O449        V457   1.899       .  S
O449       C2139   1.263   1_455  A
O450        V457   1.899       .  S
O451        V793   1.896       .  S
O451        C461   1.263   1_455  A
O452        V457   1.899       .  S
O452        C462   1.264   1_455  A
O453       C1470   1.263       .  A
O454        V458   1.899       .  S
O454       C1469   1.264       .  A
O455        V458   1.899       .  S
O455       C1468   1.264       .  A
O456        V458   1.900       .  S
O456        C459   1.263       .  A
V457       V2138   2.089   1_455  T
V458        O789   1.895       .  S
V458       V1801   2.089       .  T
C459       O1793   1.263       .  A
C459        C515   1.460   1_554  S
C460        O786   1.264       .  A
C460       O2471   1.264   1_455  A
C460       C2365   1.465       .  S
C461       O2470   1.264       .  A
C461        C476   1.462       .  S
C462       O2469   1.263       .  A
C462        C475   1.462       .  S
O463        V471   1.900       .  S
O463       C2489   1.263   1_455  A
O464        V471   1.899       .  S
O464       C2490   1.264   1_455  A
O465        V471   1.895       .  S
O465        C475   1.263   1_455  A
O466        V471   1.899       .  S
O466        C476   1.264   1_455  A
O467        V472   1.895       .  S
O467       C1484   1.263       .  A
O468        V472   1.899       .  S
O468       C1483   1.264       .  A
O469        V472   1.899       .  S
O469        C474   1.264       .  A
O470        V472   1.900       .  S
O470        C473   1.263       .  A
V471       V2488   2.089   1_455  T
V472       V1479   2.089       .  T
C473       O1471   1.263       .  A
C473       C1537   1.459   1_554  S
C474       O1472   1.264       .  A
C474       C1371   1.465       .  S
C475       O2484   1.264       .  A
C476       O2483   1.263       .  A
O477        V485   1.899       .  S
O477        C487   1.263       .  A
O478        V485   1.899       .  S
O478        C488   1.264       .  A
O479        C489   1.263       .  A
O480        V485   1.899       .  S
O480        C490   1.264       .  A
O481        V822   1.895       .  S
O481        C490   1.263       .  A
O482        V486   1.899       .  S
O482        C489   1.264       .  A
O483        V486   1.899       .  S
O484        V486   1.900       .  S
V485        O815   1.895       .  S
V485        V822   2.089       .  T
C487        O820   1.263       .  A
C487        C543   1.459   1_554  S
C488        O819   1.264       .  A
C489        C503   1.462       .  S
C490        C504   1.462       .  S
O491        V499   1.899       .  S
O491        C501   1.263       .  A
O492        V499   1.899       .  S
O492        C502   1.264       .  A
O493        V499   1.896       .  S
O493        C503   1.263       .  A
O494        V499   1.899       .  S
O494        C504   1.264       .  A
O495        V500   1.895       .  S
O495        C504   1.263       .  A
O496        V500   1.899       .  S
O496        C503   1.264       .  A
O497        V500   1.899       .  S
O497        C502   1.264       .  A
O498        V500   1.899       .  S
O498        C501   1.263       .  A
V499        V500   2.089       .  T
C501        C557   1.459   1_554  S
O505        V513   1.899       .  S
O505       C2531   1.263   1_455  A
O506        V513   1.899       .  S
O506       C2532   1.264       .  A
O507        C517   1.263       .  A
O508       V1521   1.899       .  S
O508        C518   1.264       .  A
O509        V850   1.895       .  S
O509        C518   1.263       .  A
O510       V2530   1.899   1_455  S
O510        C517   1.264       .  A
O511        V514   1.899       .  S
O512        V514   1.900       .  S
V513        O843   1.896       .  S
V513       O2524   1.899   1_455  S
V513       V2866   2.089   1_455  T
V514       O1518   1.899       .  S
V514       V1185   2.089       .  T
C515       O1513   1.263       .  A
C515        O848   1.263       .  A
C516       O1514   1.264       .  A
C516        O847   1.264       .  A
C516        C630   1.465       .  S
C517        C559   1.462       .  S
C518        C560   1.462       .  S
O519        V527   1.900       .  S
O519        C529   1.263       .  A
O520        V527   1.899       .  S
O520       C2546   1.264   1_455  A
O521        V527   1.895       .  S
O521        C531   1.263       .  A
O522       V1535   1.899       .  S
O522        C532   1.264       .  A
O523        V528   1.896       .  S
O523        C532   1.263       .  A
O524       V2544   1.899   1_455  S
O524        C531   1.264       .  A
O525        V528   1.899       .  S
O525        C530   1.264       .  A
O526        V528   1.899       .  S
O526       C1537   1.263       .  A
V527       O2538   1.899   1_455  S
V527       V2544   2.089   1_455  T
V528       O1532   1.899       .  S
V528       V1535   2.089       .  T
C529       O2542   1.263   1_455  A
C529       C2489   1.459   1_456  S
C530       O1528   1.264       .  A
C530        C642   1.465       .  S
C531        C546   1.462       .  S
C532        C545   1.462       .  S
O533        V541   1.900       .  S
O533        C543   1.263       .  A
O534        V541   1.899       .  S
O534        C544   1.264       .  A
O535        C545   1.263       .  A
O536        V541   1.899       .  S
O536        C546   1.264       .  A
O537        V878   1.895       .  S
O537        C546   1.263       .  A
O538        V542   1.899       .  S
O538        C545   1.264       .  A
O539        V542   1.899       .  S
O540        V542   1.899       .  S
V541        O871   1.896       .  S
V541        V878   2.089       .  T
C543        O876   1.263       .  A
C544        O875   1.264       .  A
C544        C657   1.465       .  S
O547        V555   1.900       .  S
O547        C557   1.263       .  A
O548        V555   1.899       .  S
O548        C558   1.264       .  A
O549        V555   1.896       .  S
O549        C559   1.263       .  A
O550        V555   1.899       .  S
O550        C560   1.264       .  A
O551        V556   1.895       .  S
O551        C560   1.263       .  A
O552        V556   1.899       .  S
O552        C559   1.264       .  A
O553        V556   1.899       .  S
O553        C558   1.264       .  A
O554        V556   1.899       .  S
O554        C557   1.263       .  A
V555        V556   2.089       .  T
C558        C671   1.465       .  S
O561        V569   1.899       .  S
O561        C571   1.264   1_455  A
O562        V569   1.899       .  S
O563        V569   1.899       .  S
O563        C573   1.264       .  A
O564       V1577   1.895       .  S
O564        C574   1.263       .  A
O565        V570   1.899       .  S
O565        C910   1.264       .  A
O566       V2586   1.895   1_455  S
O566        C909   1.263       .  A
O567        V570   1.899       .  S
O567       C1580   1.263       .  A
O568        V570   1.899       .  S
O568       C1915   1.264       .  A
V569       O2580   1.895   1_455  S
V569       V2250   2.089   1_455  T
V570       O1574   1.895       .  S
V570       V1913   2.089       .  T
C571       O2248   1.264       .  A
C572        O898   1.263   1_655  A
C572       O2583   1.263       .  A
C572       C2645   1.459       .  S
C573        C602   1.462       .  S
C574        C601   1.462       .  S
O575        V583   1.899       .  S
O575        C585   1.264       .  A
O576       V1591   1.895       .  S
O576        C586   1.263       .  A
O577        V583   1.900       .  S
O577       C2603   1.263   1_455  A
O578        V583   1.899       .  S
O578       C2604   1.264       .  A
O579        V584   1.899       .  S
O579        C588   1.264       .  A
O580        V584   1.899       .  S
O580        C587   1.263       .  A
O581        V584   1.899       .  S
O581        C586   1.264       .  A
O582       V2600   1.895   1_455  S
O582        C585   1.263       .  A
V583       O2592   1.895   1_455  S
V583       V2600   2.089   1_455  T
V584       O1590   1.895       .  S
V584       V1591   2.089       .  T
C585        C616   1.462       .  S
C586        C615   1.462       .  S
C587       O1585   1.263       .  A
C587        C641   1.459       .  S
C588       O1586   1.264       .  A
O589        V597   1.899       .  S
O590        V597   1.900       .  S
O591        V597   1.899       .  S
O591        C601   1.264       .  A
O592        V597   1.895       .  S
O592        C602   1.263       .  A
O593        V598   1.899       .  S
O593        C938   1.264       .  A
O594        V598   1.896       .  S
O594        C937   1.263       .  A
O595        V598   1.899       .  S
O595        C600   1.263       .  A
O596        V598   1.899       .  S
O596        C599   1.264       .  A
V598        V933   2.089       .  T
C599        O925   1.264       .  A
C599        C769   1.465       .  S
C600        O926   1.263       .  A
C600        C658   1.459       .  S
O603        V611   1.899       .  S
O603        C613   1.264       .  A
O604        V611   1.900       .  S
O604        C614   1.263       .  A
O605        V611   1.899       .  S
O605        C615   1.264       .  A
O606        V611   1.895       .  S
O606        C616   1.263       .  A
O607        V612   1.899       .  S
O607        C616   1.264       .  A
O608        V612   1.896       .  S
O608        C615   1.263       .  A
O609        V612   1.900       .  S
O609        C614   1.263       .  A
O610        V612   1.899       .  S
O610        C613   1.264       .  A
V611        V612   2.089       .  T
C614        C672   1.460       .  S
O617        V961   1.899       .  S
O617        C627   1.264       .  A
O618       V2641   1.895   1_455  S
O618        C628   1.263       .  A
O619        V625   1.900       .  S
O620        V625   1.899       .  S
O621        V626   1.899       .  S
O621       C2646   1.264       .  A
O622        V626   1.899       .  S
O622       C2645   1.263   1_455  A
O623        C628   1.264       .  A
O624       V1634   1.896       .  S
O624        C627   1.263       .  A
V625       O1626   1.896       .  S
V625       V1298   2.089       .  T
V626        O959   1.899       .  S
V626       O2640   1.895   1_455  S
V626       V2977   2.089   1_455  T
C627        C670   1.462       .  S
C628        C669   1.462       .  S
C629        O955   1.263       .  A
C629       O1630   1.263       .  A
C629       C1580   1.459       .  S
C630        O956   1.264       .  A
C630       O1629   1.264       .  A
O631        V639   1.900       .  S
O631        C641   1.263       .  A
O632        V639   1.899       .  S
O632        C642   1.264       .  A
O633       V2655   1.895   1_455  S
O633        C643   1.263       .  A
O634        V639   1.899       .  S
O634        C644   1.264       .  A
O635       V1648   1.895       .  S
O635        C644   1.263       .  A
O636        V640   1.899       .  S
O636        C643   1.264       .  A
O637        V640   1.899       .  S
O637       C2658   1.264   1_455  A
O638        V640   1.899       .  S
O638       C2657   1.263   1_455  A
V639       O1641   1.896       .  S
V639       V1648   2.089       .  T
V640       O2651   1.895   1_455  S
V640       V2655   2.089   1_455  T
C641       O1646   1.263       .  A
C642       O1645   1.264       .  A
C643        C655   1.462       .  S
C644        C656   1.462       .  S
O645        V653   1.895       .  S
O645        C655   1.263       .  A
O646        C656   1.264       .  A
O647        V653   1.899       .  S
O647        C657   1.264       .  A
O648        V653   1.899       .  S
O648        C658   1.263       .  A
O649        V654   1.900       .  S
O650        V654   1.899       .  S
O651        V654   1.896       .  S
O651        C656   1.263       .  A
O652        V990   1.899       .  S
O652        C655   1.264       .  A
V653        O982   1.899       .  S
V653        V990   2.089       .  T
C657        O986   1.264       .  A
C658        O985   1.263       .  A
O659        V667   1.895       .  S
O659        C669   1.263       .  A
O660        V667   1.899       .  S
O660        C670   1.264       .  A
O661        V667   1.899       .  S
O661        C671   1.264       .  A
O662        V667   1.900       .  S
O662        C672   1.263       .  A
O663        V668   1.899       .  S
O663        C672   1.263       .  A
O664        V668   1.899       .  S
O664        C671   1.264       .  A
O665        V668   1.896       .  S
O665        C670   1.263       .  A
O666        V668   1.899       .  S
O666        C669   1.264       .  A
V667        V668   2.089       .  T
O673        V681   1.896       .  S
O673       C1691   1.263       .  A
O674       C1692   1.264       .  A
O675        V681   1.899       .  S
O675        C685   1.264   1_565  A
O676        V681   1.899       .  S
O677        V682   1.900       .  S
O677       C2702   1.263   1_455  A
O678        V682   1.899       .  S
O678       C2365   1.264       .  A
O679        V682   1.896       .  S
O679        C684   1.263   1_455  A
O680        C683   1.264   1_455  A
V681       V1018   2.089   1_565  T
V682       V2361   2.089   1_455  T
C683       O2689   1.263       .  A
C683        C697   1.462       .  S
C684       O2690   1.264       .  A
C684        C698   1.462   1_655  S
C685       O1014   1.264       .  A
C685       C1804   1.465   1_545  S
C686       O1685   1.263       .  A
C686       C1748   1.459       .  S
O687        V695   1.895       .  S
O687        C697   1.263   1_455  A
O688        V695   1.899       .  S
O688        C698   1.264       .  A
O689        V695   1.899       .  S
O689        C699   1.264   1_455  A
O690        V695   1.900       .  S
O690        C700   1.263   1_455  A
O691        V696   1.900       .  S
O691       C1708   1.263       .  A
O692        V696   1.899       .  S
O692       C1707   1.264       .  A
O693        V696   1.895       .  S
O693       C1706   1.263       .  A
O694        V696   1.899       .  S
O694       C1705   1.264       .  A
V695       V2712   2.089   1_455  T
V696       V1703   2.089       .  T
C697       O2710   1.264       .  A
C698       O2709   1.263   1_455  A
C699       O2708   1.264       .  A
C699       C2826   1.465       .  S
C700       O2707   1.263       .  A
C700        C755   1.459       .  S
O701        V709   1.895       .  S
O701        C711   1.263       .  A
O702        C712   1.264       .  A
O703        V709   1.899       .  S
O703        C713   1.264   1_565  A
O704        V709   1.899       .  S
O704        C714   1.263   1_565  A
O705        V710   1.900       .  S
O706        V710   1.899       .  S
O707        V710   1.895       .  S
O707        C712   1.263       .  A
O708        C711   1.264       .  A
C711        C728   1.462       .  S
C712        C727   1.462       .  S
C713        C824   1.465       .  S
C714        C770   1.459       .  S
O715        V723   1.899       .  S
O715        C725   1.264       .  A
O716        V723   1.900       .  S
O716        C726   1.263       .  A
O717        V723   1.899       .  S
O717        C727   1.264       .  A
O718        V723   1.895       .  S
O718        C728   1.263       .  A
O719        V724   1.899       .  S
O719        C728   1.264       .  A
O720        V724   1.895       .  S
O720        C727   1.263       .  A
O721        V724   1.900       .  S
O721        C726   1.263       .  A
O722        V724   1.899       .  S
O722        C725   1.264       .  A
V723        V724   2.089       .  T
C725        C838   1.465       .  S
C726        C784   1.460       .  S
O729        V737   1.899       .  S
O729        C739   1.264       .  A
O730        V737   1.900       .  S
O730        C740   1.263   1_455  A
O731       V1745   1.899       .  S
O731        C741   1.264       .  A
O732        V737   1.895       .  S
O732        C742   1.263       .  A
O733       V2754   1.899   1_455  S
O734        V738   1.896       .  S
O735        V738   1.899       .  S
O735       C1076   1.263   1_565  A
O736        V738   1.899       .  S
O736       C1075   1.264   1_565  A
V737       O2747   1.899   1_455  S
V737       V2418   2.089   1_455  T
V738       O1741   1.899       .  S
V738       V1073   2.089   1_565  T
C739       O2416   1.264   1_455  A
C739        C907   1.465       .  S
C740       O2415   1.263       .  A
C740       C2702   1.460       .  S
C741        C768   1.462       .  S
C742        C767   1.462       .  S
O743       V2767   1.900   1_455  S
O743        C753   1.264       .  A
O744        V751   1.895       .  S
O744        C754   1.263       .  A
O745        V751   1.900       .  S
O745       C1763   1.263       .  A
O746        V751   1.899       .  S
O746        C756   1.264       .  A
O747        V752   1.899       .  S
O747       C2772   1.264   1_455  A
O748        V752   1.900       .  S
O748        C755   1.263   1_455  A
O749       V1760   1.899       .  S
O749        C754   1.264       .  A
O750        V752   1.896       .  S
O750        C753   1.263       .  A
V751       O1751   1.899       .  S
V751       V1760   2.089       .  T
V752       O2765   1.899   1_455  S
V752       V2767   2.089   1_455  T
C753        C781   1.462       .  S
C754        C782   1.462       .  S
C755       O2761   1.263       .  A
C756       O1755   1.264       .  A
C756        C924   1.465       .  S
O757        V765   1.895       .  S
O758        V765   1.899       .  S
O759        V765   1.899       .  S
O760        V765   1.899       .  S
O760        C770   1.263   1_565  A
O761        V766   1.900       .  S
O762        V766   1.899       .  S
O762        C769   1.264       .  A
O763        V766   1.895       .  S
O763        C768   1.263       .  A
O764        V766   1.899       .  S
O764        C767   1.264       .  A
O771        V779   1.896       .  S
O771        C781   1.263       .  A
O772        V779   1.899       .  S
O772        C782   1.264       .  A
O773        V779   1.899       .  S
O773        C783   1.264       .  A
O774        V779   1.900       .  S
O774        C784   1.263       .  A
O775        V780   1.900       .  S
O775        C784   1.263       .  A
O776        V780   1.899       .  S
O776        C783   1.264       .  A
O777        V780   1.896       .  S
O777        C782   1.263       .  A
O778        V780   1.900       .  S
O778        C781   1.264       .  A
V779        V780   2.089       .  T
C783        C949   1.465       .  S
O785        V793   1.899       .  S
O785       C2475   1.263   1_455  A
O786        V793   1.899       .  S
O787        C797   1.263   1_455  A
O788        V793   1.899       .  S
O788        C798   1.264   1_455  A
O789       C1806   1.263       .  A
O790        V794   1.899       .  S
O790       C1805   1.264       .  A
O791        V794   1.899       .  S
O791       C1804   1.264       .  A
O792        V794   1.899       .  S
O792        C795   1.263       .  A
V793       V2474   2.089   1_455  T
V794       V1129   2.089   1_565  T
C795       O1121   1.263   1_565  A
C795        C851   1.459   1_554  S
C796       O2807   1.264       .  A
C796       C2701   1.465       .  S
C797       O2806   1.264       .  A
C797        C812   1.462       .  S
C798       O2805   1.263       .  A
C798        C811   1.462       .  S
O799        V807   1.899       .  S
O799       C2825   1.263   1_455  A
O800        V807   1.899       .  S
O800       C2826   1.264   1_455  A
O801        V807   1.895       .  S
O801        C811   1.263   1_455  A
O802        V807   1.899       .  S
O802        C812   1.264   1_455  A
O803        V808   1.895       .  S
O803       C1820   1.263       .  A
O804        V808   1.899       .  S
O804       C1819   1.264       .  A
O805        V808   1.899       .  S
O805        C810   1.264       .  A
O806        V808   1.900       .  S
O806        C809   1.263       .  A
V807       V2824   2.089   1_455  T
V808       V1815   2.089       .  T
C809       O1807   1.263       .  A
C809       C1873   1.460   1_554  S
C810       O1808   1.264       .  A
C810       C1707   1.465       .  S
C811       O2820   1.264       .  A
C812       O2819   1.263       .  A
O813        V821   1.899       .  S
O813        C823   1.263       .  A
O814        V821   1.899       .  S
O814        C824   1.264   1_565  A
O815        C825   1.263       .  A
O816        V821   1.899       .  S
O816        C826   1.264       .  A
O817        C826   1.263       .  A
O818        V822   1.899       .  S
O818        C825   1.264       .  A
O819        V822   1.899       .  S
O820        V822   1.900       .  S
C823        C879   1.459   1_554  S
C825        C839   1.462       .  S
C826        C840   1.462       .  S
O827        V835   1.900       .  S
O827        C837   1.263       .  A
O828        V835   1.899       .  S
O828        C838   1.264       .  A
O829        V835   1.895       .  S
O829        C839   1.263       .  A
O830        V835   1.899       .  S
O830        C840   1.264       .  A
O831        V836   1.895       .  S
O831        C840   1.263       .  A
O832        V836   1.899       .  S
O832        C839   1.264       .  A
O833        V836   1.899       .  S
O833        C838   1.264       .  A
O834        V836   1.899       .  S
O834        C837   1.263       .  A
V835        V836   2.089       .  T
C837        C893   1.459   1_554  S
O841        V849   1.899       .  S
O841       C2867   1.263   1_455  A
O842        V849   1.899       .  S
O842       C2868   1.264   1_455  A
O843        C853   1.263       .  A
O844       V1857   1.899       .  S
O844        C854   1.264       .  A
O845        C854   1.263       .  A
O846       V2866   1.899   1_455  S
O846        C853   1.264       .  A
O847        V850   1.899       .  S
O848        V850   1.900       .  S
V849       O2860   1.899   1_455  S
V849       V2194   2.089   1_465  T
V850       O1854   1.899       .  S
V850       V1521   2.089       .  T
C851       O1849   1.263       .  A
C852       O1850   1.264       .  A
C852        C966   1.465       .  S
C853        C895   1.462       .  S
C854        C896   1.462       .  S
O855        V863   1.899       .  S
O855        C865   1.263   1_455  A
O856        V863   1.899       .  S
O856       C2882   1.264       .  A
O857        V863   1.895       .  S
O857        C867   1.263       .  A
O858       V1871   1.899       .  S
O858        C868   1.264       .  A
O859        V864   1.896       .  S
O859        C868   1.263       .  A
O860       V2880   1.899   1_455  S
O860        C867   1.264       .  A
O861        V864   1.899       .  S
O861        C866   1.264       .  A
O862        V864   1.900       .  S
O862       C1873   1.263       .  A
V863       O2874   1.899   1_455  S
V863       V2880   2.089   1_455  T
V864       O1868   1.899       .  S
V864       V1871   2.089       .  T
C865       O2878   1.263       .  A
C865       C2825   1.459   1_556  S
C866       O1864   1.264       .  A
C866        C978   1.465       .  S
C867        C882   1.462       .  S
C868        C881   1.462       .  S
O869        V877   1.899       .  S
O869        C879   1.263       .  A
O870        V877   1.899       .  S
O870        C880   1.264       .  A
O871        C881   1.263       .  A
O872        V877   1.899       .  S
O872        C882   1.264       .  A
O873        C882   1.263       .  A
O874        V878   1.899       .  S
O874        C881   1.264       .  A
O875        V878   1.899       .  S
O876        V878   1.899       .  S
C880        C993   1.465       .  S
O883        V891   1.899       .  S
O883        C893   1.263       .  A
O884        V891   1.899       .  S
O884        C894   1.264       .  A
O885        V891   1.895       .  S
O885        C895   1.263       .  A
O886        V891   1.899       .  S
O886        C896   1.264       .  A
O887        V892   1.895       .  S
O887        C896   1.263       .  A
O888        V892   1.899       .  S
O888        C895   1.264       .  A
O889        V892   1.899       .  S
O889        C894   1.264       .  A
O890        V892   1.900       .  S
O890        C893   1.263       .  A
V891        V892   2.089       .  T
C894       C1007   1.465       .  S
O897        V905   1.899       .  S
O897        C907   1.264       .  A
O898        V905   1.899       .  S
O899        V905   1.899       .  S
O899        C909   1.264       .  A
O900       V1913   1.896       .  S
O900        C910   1.263       .  A
O901        V906   1.899       .  S
O902       V2922   1.895   1_455  S
O903        V906   1.900       .  S
O903       C1916   1.263   1_565  A
O904        V906   1.899       .  S
O904       C1243   1.264   1_565  A
V905       O2916   1.895   1_455  S
V905       V2586   2.089   1_455  T
V906       O1910   1.895       .  S
V906       V1241   2.089   1_565  T
C907       O2584   1.264   1_455  A
C908       O2919   1.263   1_545  A
C908       C2981   1.459       .  S
C909        C938   1.462       .  S
C910        C937   1.462       .  S
O911        V919   1.899       .  S
O911        C921   1.264       .  A
O912       V1927   1.895       .  S
O912        C922   1.263       .  A
O913        V919   1.900       .  S
O913       C2939   1.263       .  A
O914        V919   1.899       .  S
O914       C2940   1.264   1_455  A
O915        V920   1.899       .  S
O915        C924   1.264       .  A
O916        V920   1.899       .  S
O916        C923   1.263       .  A
O917        V920   1.899       .  S
O917        C922   1.264       .  A
O918       V2936   1.896   1_455  S
O918        C921   1.263       .  A
V919       O2928   1.896   1_455  S
V919       V2936   2.089   1_455  T
V920       O1926   1.895       .  S
V920       V1927   2.090       .  T
C921        C952   1.462       .  S
C922        C951   1.462       .  S
C923       O1921   1.263       .  A
C923        C977   1.459       .  S
C924       O1922   1.264       .  A
O925        V933   1.899       .  S
O926        V933   1.899       .  S
O927        V933   1.899       .  S
O927        C937   1.264       .  A
O928        V933   1.895       .  S
O928        C938   1.263       .  A
O929        V934   1.899       .  S
O930        V934   1.896       .  S
O931        V934   1.900       .  S
O931        C936   1.263       .  A
O932        V934   1.899       .  S
O932        C935   1.264       .  A
C936        C994   1.459       .  S
O939        V947   1.899       .  S
O939        C949   1.264       .  A
O940        V947   1.900       .  S
O940        C950   1.263       .  A
O941        V947   1.899       .  S
O941        C951   1.264       .  A
O942        V947   1.896       .  S
O942        C952   1.263       .  A
O943        V948   1.899       .  S
O943        C952   1.264       .  A
O944        V948   1.895       .  S
O944        C951   1.263       .  A
O945        V948   1.900       .  S
O945        C950   1.263       .  A
O946        V948   1.899       .  S
O946        C949   1.264       .  A
V947        V948   2.089       .  T
C950       C1008   1.459       .  S
O953        C963   1.264       .  A
O954       V2977   1.895   1_455  S
O954        C964   1.263       .  A
O955        V961   1.899       .  S
O956        V961   1.899       .  S
O957        V962   1.899       .  S
O957       C2982   1.264   1_455  A
O958        V962   1.899       .  S
O958       C2981   1.263   1_465  A
O959        C964   1.264       .  A
O960       V1970   1.895       .  S
O960        C963   1.263       .  A
V961       O1962   1.895       .  S
V961       V1634   2.089       .  T
V962       O2976   1.895   1_455  S
V962       V2305   2.089   1_465  T
C963       C1006   1.462       .  S
C964       C1005   1.462       .  S
C965       O1966   1.263   1_545  A
C965       C1916   1.459       .  S
C966       O1965   1.264       .  A
O967        V975   1.899       .  S
O967        C977   1.263       .  A
O968        V975   1.899       .  S
O968        C978   1.264       .  A
O969       V2991   1.895   1_455  S
O969        C979   1.263       .  A
O970        V975   1.899       .  S
O970        C980   1.264       .  A
O971       V1984   1.896       .  S
O971        C980   1.263       .  A
O972        V976   1.899       .  S
O972        C979   1.264       .  A
O973        V976   1.899       .  S
O973       C2994   1.264       .  A
O974        V976   1.899       .  S
O974       C2993   1.263       .  A
V975       O1977   1.896       .  S
V975       V1984   2.089       .  T
V976       O2987   1.896   1_455  S
V976       V2991   2.089   1_455  T
C977       O1982   1.263       .  A
C978       O1981   1.264       .  A
C979        C991   1.462       .  S
C980        C992   1.462       .  S
O981        V989   1.895       .  S
O981        C991   1.263       .  A
O982        C992   1.264       .  A
O983        V989   1.899       .  S
O983        C993   1.264       .  A
O984        V989   1.900       .  S
O984        C994   1.263       .  A
O985        V990   1.899       .  S
O986        V990   1.899       .  S
O987        V990   1.896       .  S
O987        C992   1.263       .  A
O988        C991   1.264       .  A
O995       V1003   1.896       .  S
O995       C1005   1.263       .  A
O996       V1003   1.899       .  S
O996       C1006   1.264       .  A
O997       V1003   1.899       .  S
O997       C1007   1.264       .  A
O998       V1003   1.899       .  S
O998       C1008   1.263       .  A
O999       V1004   1.900       .  S
O999       C1008   1.263       .  A
O1000      V1004   1.899       .  S
O1000      C1007   1.264       .  A
O1001      V1004   1.895       .  S
O1001      C1006   1.263       .  A
O1002      V1004   1.899       .  S
O1002      C1005   1.264       .  A
V1003      V1004   2.089       .  T
O1009      V1017   1.895       .  S
O1009      C2027   1.263       .  A
O1010      V1689   1.899   1_545  S
O1010      C2028   1.264       .  A
O1011      V1017   1.899       .  S
O1011      C1021   1.264       .  A
O1012      V1017   1.900       .  S
O1012      C1358   1.263       .  A
O1013      V1018   1.900       .  S
O1014      V1018   1.899       .  S
O1015      V1018   1.895       .  S
O1015      C1020   1.263       .  A
O1016      V1354   1.899       .  S
O1016      C1019   1.264       .  A
V1017      O1346   1.899       .  S
V1017      V2362   2.089       .  T
V1018      O1688   1.899   1_545  S
C1019      C1033   1.462       .  S
C1020      C1034   1.462       .  S
C1021      O2358   1.264       .  A
C1021      C2140   1.465       .  S
C1022      O1684   1.263       .  A
C1022      O2021   1.263   1_565  A
C1022      C2084   1.460       .  S
O1023      V1031   1.895       .  S
O1023      C1033   1.263       .  A
O1024      V1031   1.899       .  S
O1024      C1034   1.264       .  A
O1025      V1031   1.899       .  S
O1025      C1035   1.264       .  A
O1026      V1031   1.899       .  S
O1026      C1036   1.263       .  A
O1027      V1032   1.900       .  S
O1027      C2044   1.263       .  A
O1028      V1032   1.899       .  S
O1028      C2043   1.264       .  A
O1029      V1032   1.895       .  S
O1029      C2042   1.263       .  A
O1030      V1032   1.899       .  S
O1030      C2041   1.264       .  A
V1032      V2039   2.089       .  T
C1036      C1091   1.459       .  S
O1037      V1045   1.895       .  S
O1037      C1047   1.263       .  A
O1038      V1717   1.899   1_545  S
O1038      C1048   1.264       .  A
O1039      V1045   1.899       .  S
O1039      C1049   1.264       .  A
O1040      V1045   1.900       .  S
O1040      C1050   1.263       .  A
O1041      V1046   1.899       .  S
O1041      C1722   1.263   1_545  A
O1042      V1046   1.899       .  S
O1042      C1721   1.264   1_545  A
O1043      V1046   1.896       .  S
O1043      C1048   1.263       .  A
O1044      V1382   1.899       .  S
O1044      C1047   1.264       .  A
V1045      O1374   1.899       .  S
V1045      V1382   2.089       .  T
V1046      O1716   1.899   1_545  S
V1046      V1717   2.089   1_545  T
C1047      C1064   1.462       .  S
C1048      C1063   1.462       .  S
C1049      O1378   1.264       .  A
C1049      C1160   1.465       .  S
C1050      O1377   1.263       .  A
C1050      C1106   1.459       .  S
O1051      V1059   1.899       .  S
O1051      C1061   1.264       .  A
O1052      V1059   1.899       .  S
O1052      C1062   1.263       .  A
O1053      V1059   1.899       .  S
O1053      C1063   1.264       .  A
O1054      V1059   1.895       .  S
O1054      C1064   1.263       .  A
O1055      V1060   1.899       .  S
O1055      C1064   1.264       .  A
O1056      V1060   1.895       .  S
O1056      C1063   1.263       .  A
O1057      V1060   1.899       .  S
O1057      C1062   1.263       .  A
O1058      V1060   1.899       .  S
O1058      C1061   1.264       .  A
V1059      V1060   2.089       .  T
C1061      C1174   1.465       .  S
C1062      C1120   1.459       .  S
O1065      V1073   1.899       .  S
O1065      C1075   1.264       .  A
O1066      V1073   1.900       .  S
O1066      C1076   1.263       .  A
O1067      V2081   1.899       .  S
O1067      C1077   1.264   1_545  A
O1068      V1073   1.895       .  S
O1068      C1078   1.263       .  A
O1069      C1414   1.264       .  A
O1070      V1074   1.895       .  S
O1070      C1413   1.263       .  A
O1071      V1074   1.899       .  S
O1071      C2420   1.263       .  A
O1072      V1074   1.899       .  S
O1072      C2419   1.264       .  A
V1074      O2077   1.899       .  S
V1074      V2417   2.089       .  T
C1075      C1243   1.465       .  S
C1077      O1742   1.263       .  A
C1077      C1104   1.462       .  S
C1078      O1741   1.264   1_545  A
C1078      C1103   1.462       .  S
O1079      C1089   1.264       .  A
O1080      V1087   1.895       .  S
O1080      C1090   1.263       .  A
O1081      V1087   1.900       .  S
O1081      C2099   1.263       .  A
O1082      V1087   1.899       .  S
O1082      C1092   1.264       .  A
O1083      V1088   1.899       .  S
O1084      V1088   1.899       .  S
O1084      C1091   1.263       .  A
O1085      V2096   1.899       .  S
O1085      C1090   1.264       .  A
O1086      V1088   1.895       .  S
O1086      C1089   1.263       .  A
V1087      O2087   1.899       .  S
V1087      V2096   2.089       .  T
C1089      C1117   1.462       .  S
C1090      C1118   1.462       .  S
C1092      O2091   1.264       .  A
C1092      C1260   1.465       .  S
O1093      V1101   1.895       .  S
O1093      C1439   1.263       .  A
O1094      V1101   1.899       .  S
O1094      C1440   1.264       .  A
O1095      V1101   1.899       .  S
O1095      C1441   1.264       .  A
O1096      V1101   1.899       .  S
O1096      C1106   1.263       .  A
O1097      V1102   1.899       .  S
O1097      C1778   1.263   1_545  A
O1098      V1102   1.899       .  S
O1098      C1105   1.264   1_545  A
O1099      V1102   1.895       .  S
O1099      C1104   1.263   1_545  A
O1100      V1102   1.899       .  S
O1100      C1103   1.264       .  A
V1101      V1438   2.089       .  T
V1102      V1773   2.089   1_545  T
C1103      O1765   1.263   1_545  A
C1104      O1766   1.264       .  A
C1105      O1767   1.264       .  A
C1105      C1943   1.465       .  S
C1106      O1433   1.263       .  A
O1107      V1115   1.895       .  S
O1107      C1117   1.263       .  A
O1108      V1115   1.899       .  S
O1108      C1118   1.264       .  A
O1109      V1115   1.899       .  S
O1109      C1119   1.264       .  A
O1110      V1115   1.899       .  S
O1110      C1120   1.263       .  A
O1111      V1116   1.899       .  S
O1111      C1120   1.263       .  A
O1112      V1116   1.899       .  S
O1112      C1119   1.264       .  A
O1113      V1116   1.895       .  S
O1113      C1118   1.263       .  A
O1114      V1116   1.899       .  S
O1114      C1117   1.264       .  A
V1115      V1116   2.089       .  T
C1119      C1285   1.465       .  S
O1121      V1129   1.900       .  S
O1122      V1129   1.899       .  S
O1122      C1804   1.264   1_545  A
O1123      V1465   1.896       .  S
O1123      C1133   1.263       .  A
O1124      V1129   1.899       .  S
O1124      C1134   1.264       .  A
O1125      V1802   1.895   1_545  S
O1125      C2142   1.263       .  A
O1126      V1130   1.899       .  S
O1126      C2141   1.264       .  A
O1127      V1130   1.899       .  S
O1127      C2140   1.264       .  A
O1128      V1130   1.900       .  S
O1128      C1131   1.263       .  A
V1129      O1795   1.896   1_545  S
V1130      O1461   1.895       .  S
V1130      V2473   2.089       .  T
C1131      O2465   1.263       .  A
C1131      C1187   1.459   1_554  S
C1132      O1458   1.264       .  A
C1133      C1148   1.462       .  S
C1134      C1147   1.462       .  S
O1135      V1143   1.899       .  S
O1136      V1143   1.899       .  S
O1137      V1143   1.895       .  S
O1137      C1147   1.263       .  A
O1138      V1143   1.899       .  S
O1138      C1148   1.264       .  A
O1139      V1144   1.895       .  S
O1139      C2156   1.263       .  A
O1140      V1144   1.899       .  S
O1140      C2155   1.264       .  A
O1141      V1144   1.899       .  S
O1141      C1146   1.264       .  A
O1142      V1144   1.900       .  S
O1142      C1145   1.263       .  A
V1144      V2151   2.089       .  T
C1145      O2143   1.263       .  A
C1145      C2209   1.460   1_554  S
C1146      O2144   1.264       .  A
C1146      C2043   1.465       .  S
O1149      V1157   1.899       .  S
O1149      C1159   1.263       .  A
O1150      V1157   1.899       .  S
O1150      C1160   1.264       .  A
O1151      V1829   1.896   1_545  S
O1151      C1161   1.263       .  A
O1152      V1157   1.899       .  S
O1152      C1162   1.264       .  A
O1153      V1494   1.895       .  S
O1153      C1162   1.263       .  A
O1154      V1158   1.899       .  S
O1154      C1161   1.264       .  A
O1155      V1158   1.899       .  S
O1155      C1832   1.264   1_545  A
O1156      V1158   1.899       .  S
O1156      C1831   1.263       .  A
V1157      O1487   1.895       .  S
V1157      V1494   2.089       .  T
V1158      O1825   1.895   1_545  S
V1158      V1829   2.089   1_545  T
C1159      O1492   1.263       .  A
C1159      C1215   1.459   1_554  S
C1160      O1491   1.264       .  A
C1161      C1175   1.462       .  S
C1162      C1176   1.462       .  S
O1163      V1171   1.900       .  S
O1163      C1173   1.263       .  A
O1164      V1171   1.899       .  S
O1164      C1174   1.264       .  A
O1165      V1171   1.896       .  S
O1165      C1175   1.263       .  A
O1166      V1171   1.899       .  S
O1166      C1176   1.264       .  A
O1167      V1172   1.895       .  S
O1167      C1176   1.263       .  A
O1168      V1172   1.899       .  S
O1168      C1175   1.264       .  A
O1169      V1172   1.899       .  S
O1169      C1174   1.264       .  A
O1170      V1172   1.900       .  S
O1170      C1173   1.263       .  A
V1171      V1172   2.089       .  T
C1173      C1229   1.460   1_554  S
O1177      V1185   1.899       .  S
O1178      V1185   1.899       .  S
O1179      V1857   1.895   1_545  S
O1179      C1189   1.263       .  A
O1180      V2193   1.899       .  S
O1180      C1190   1.264       .  A
O1181      V1522   1.895       .  S
O1181      C1190   1.263       .  A
O1182      C1189   1.264       .  A
O1183      V1186   1.899       .  S
O1183      C1860   1.264   1_545  A
O1184      V1186   1.900       .  S
O1184      C1859   1.263       .  A
V1185      O1515   1.896       .  S
V1186      O1853   1.896   1_545  S
V1186      O2190   1.899       .  S
V1186      V2865   2.089   1_545  T
C1187      O2185   1.263       .  A
C1187      O1520   1.263       .  A
C1188      O2186   1.264       .  A
C1188      O1519   1.264       .  A
C1188      C1302   1.465       .  S
C1189      C1231   1.462       .  S
C1190      C1232   1.462       .  S
O1191      V1199   1.899       .  S
O1191      C1201   1.263       .  A
O1192      V1199   1.899       .  S
O1193      V1199   1.895       .  S
O1193      C1203   1.263       .  A
O1194      V2207   1.899       .  S
O1194      C1204   1.264       .  A
O1195      V1200   1.896       .  S
O1195      C1204   1.263       .  A
O1196      C1203   1.264       .  A
O1197      V1200   1.899       .  S
O1197      C1202   1.264       .  A
O1198      V1200   1.900       .  S
O1198      C2209   1.263       .  A
V1200      O2204   1.899       .  S
V1200      V2207   2.089       .  T
C1202      O2200   1.264       .  A
C1202      C1314   1.465       .  S
C1203      C1218   1.462       .  S
C1204      C1217   1.462       .  S
O1205      V1213   1.899       .  S
O1205      C1215   1.263       .  A
O1206      V1213   1.899       .  S
O1206      C1216   1.264       .  A
O1207      V1885   1.895   1_545  S
O1207      C1217   1.263       .  A
O1208      V1213   1.899       .  S
O1208      C1218   1.264       .  A
O1209      V1550   1.895       .  S
O1209      C1218   1.263       .  A
O1210      V1214   1.900       .  S
O1210      C1217   1.264       .  A
O1211      V1214   1.899       .  S
O1211      C1888   1.264       .  A
O1212      V1214   1.900       .  S
O1212      C1887   1.263       .  A
V1213      O1543   1.896       .  S
V1213      V1550   2.089       .  T
V1214      O1881   1.896   1_545  S
V1214      V1885   2.089   1_545  T
C1215      O1548   1.263       .  A
C1216      O1547   1.264       .  A
C1216      C1329   1.465       .  S
O1219      V1227   1.900       .  S
O1219      C1229   1.263       .  A
O1220      V1227   1.899       .  S
O1220      C1230   1.264       .  A
O1221      V1227   1.896       .  S
O1221      C1231   1.263       .  A
O1222      V1227   1.899       .  S
O1222      C1232   1.264       .  A
O1223      V1228   1.896       .  S
O1223      C1232   1.263       .  A
O1224      V1228   1.899       .  S
O1224      C1231   1.264       .  A
O1225      V1228   1.899       .  S
O1225      C1230   1.264       .  A
O1226      V1228   1.900       .  S
O1226      C1229   1.263       .  A
V1227      V1228   2.089       .  T
C1230      C1343   1.465       .  S
O1233      V1241   1.899       .  S
O1233      C1243   1.264       .  A
O1234      V1241   1.899       .  S
O1234      C1916   1.263       .  A
O1235      V1241   1.899       .  S
O1235      C1245   1.264       .  A
O1236      V2249   1.896       .  S
O1236      C1246   1.263   1_545  A
O1237      V1242   1.899       .  S
O1237      C1582   1.264       .  A
O1238      C1581   1.263       .  A
O1239      V1242   1.900       .  S
O1239      C2252   1.263       .  A
O1240      V1242   1.899       .  S
O1240      C2587   1.264       .  A
V1242      O2246   1.895       .  S
V1242      V2585   2.089       .  T
C1244      O1570   1.263       .  A
C1245      O1910   1.263   1_545  A
C1245      C1274   1.462       .  S
C1246      O1909   1.264       .  A
C1246      C1273   1.462   1_565  S
O1247      V1255   1.899       .  S
O1247      C1257   1.264       .  A
O1248      V2263   1.895       .  S
O1248      C1258   1.263       .  A
O1249      V1255   1.900       .  S
O1250      V1255   1.899       .  S
O1251      V1256   1.899       .  S
O1251      C1260   1.264       .  A
O1252      V1256   1.899       .  S
O1252      C1259   1.263       .  A
O1253      V1256   1.899       .  S
O1253      C1258   1.264       .  A
O1254      C1257   1.263       .  A
V1256      O2262   1.895       .  S
V1256      V2263   2.089       .  T
C1257      C1288   1.462       .  S
C1258      C1287   1.462       .  S
C1259      O2257   1.263       .  A
C1259      C1313   1.459       .  S
C1260      O2258   1.264       .  A
O1261      V1269   1.899       .  S
O1261      C1943   1.264   1_545  A
O1262      V1269   1.900       .  S
O1262      C1944   1.263       .  A
O1263      V1269   1.899       .  S
O1263      C1273   1.264       .  A
O1264      V1269   1.895       .  S
O1264      C1274   1.263       .  A
O1265      V1270   1.899       .  S
O1265      C1610   1.264       .  A
O1266      V1270   1.896       .  S
O1266      C1609   1.263       .  A
O1267      V1270   1.900       .  S
O1267      C1272   1.263       .  A
O1268      V1270   1.899       .  S
O1268      C1271   1.264       .  A
V1269      V1942   2.089   1_545  T
V1270      V1605   2.089       .  T
C1271      O1597   1.264       .  A
C1271      C1441   1.465       .  S
C1272      O1598   1.263       .  A
C1272      C1330   1.460       .  S
C1273      O1938   1.263   1_545  A
C1274      O1937   1.264   1_545  A
O1275      V1283   1.899       .  S
O1275      C1285   1.264       .  A
O1276      V1283   1.899       .  S
O1276      C1286   1.263       .  A
O1277      V1283   1.899       .  S
O1277      C1287   1.264       .  A
O1278      V1283   1.895       .  S
O1278      C1288   1.263       .  A
O1279      V1284   1.899       .  S
O1279      C1288   1.264       .  A
O1280      V1284   1.895       .  S
O1280      C1287   1.263       .  A
O1281      V1284   1.900       .  S
O1281      C1286   1.263       .  A
O1282      V1284   1.899       .  S
O1282      C1285   1.264       .  A
V1283      V1284   2.089       .  T
C1286      C1344   1.459       .  S
O1289      V1633   1.899       .  S
O1289      C1299   1.264       .  A
O1290      C1300   1.263       .  A
O1291      V1297   1.899       .  S
O1291      C1973   1.263       .  A
O1292      V1297   1.899       .  S
O1292      C1974   1.264   1_545  A
O1293      V1298   1.899       .  S
O1294      V1298   1.900       .  S
O1295      V1970   1.899   1_545  S
O1295      C1300   1.264       .  A
O1296      V2306   1.895       .  S
O1296      C1299   1.263       .  A
V1297      O1961   1.899   1_545  S
V1297      O2298   1.896       .  S
V1297      V2978   2.089   1_545  T
V1298      O1631   1.899       .  S
C1299      C1342   1.462       .  S
C1300      C1341   1.462       .  S
C1301      O1627   1.263       .  A
C1301      O2302   1.263       .  A
C1301      C2252   1.459       .  S
C1302      O1628   1.264       .  A
C1302      O2301   1.264       .  A
O1303      V1311   1.899       .  S
O1303      C1313   1.263       .  A
O1304      V1311   1.899       .  S
O1304      C1314   1.264       .  A
O1305      C1315   1.263       .  A
O1306      V1311   1.899       .  S
O1306      C1316   1.264       .  A
O1307      V2320   1.896       .  S
O1307      C1316   1.263       .  A
O1308      V1312   1.899       .  S
O1308      C1315   1.264       .  A
O1309      V1312   1.899       .  S
O1310      V1312   1.900       .  S
V1311      O2313   1.895       .  S
V1311      V2320   2.089       .  T
C1313      O2318   1.263       .  A
C1314      O2317   1.264       .  A
C1315      C1327   1.462       .  S
C1316      C1328   1.462       .  S
O1317      V1325   1.895       .  S
O1317      C1327   1.263       .  A
O1318      V1997   1.899   1_545  S
O1318      C1328   1.264       .  A
O1319      V1325   1.899       .  S
O1319      C1329   1.264       .  A
O1320      V1325   1.900       .  S
O1320      C1330   1.263       .  A
O1321      V1326   1.900       .  S
O1321      C2002   1.263       .  A
O1322      V1326   1.899       .  S
O1322      C2001   1.264       .  A
O1323      V1326   1.896       .  S
O1323      C1328   1.263       .  A
O1324      V1662   1.899       .  S
O1324      C1327   1.264       .  A
V1325      O1654   1.899       .  S
V1325      V1662   2.089       .  T
V1326      O1996   1.899   1_545  S
V1326      V1997   2.089   1_545  T
C1329      O1658   1.264       .  A
C1330      O1657   1.263       .  A
O1331      V1339   1.895       .  S
O1331      C1341   1.263       .  A
O1332      V1339   1.899       .  S
O1332      C1342   1.264       .  A
O1333      V1339   1.899       .  S
O1333      C1343   1.264       .  A
O1334      V1339   1.900       .  S
O1334      C1344   1.263       .  A
O1335      V1340   1.900       .  S
O1335      C1344   1.263       .  A
O1336      V1340   1.899       .  S
O1336      C1343   1.264       .  A
O1337      V1340   1.895       .  S
O1337      C1342   1.263       .  A
O1338      V1340   1.899       .  S
O1338      C1341   1.264       .  A
V1339      V1340   2.089       .  T
O1345      V1353   1.895       .  S
O1345      C2363   1.263       .  A
O1346      C2364   1.264       .  A
O1347      V1353   1.899       .  S
O1347      C1357   1.264       .  A
O1348      V1353   1.900       .  S
O1348      C1694   1.263       .  A
O1349      V1354   1.899       .  S
O1350      V1354   1.899       .  S
O1351      V1354   1.895       .  S
O1351      C1356   1.263       .  A
O1352      V1690   1.899       .  S
O1352      C1355   1.264       .  A
V1353      O1682   1.899       .  S
V1353      V2698   2.089       .  T
C1355      C1369   1.462       .  S
C1356      C1370   1.462       .  S
C1357      O2694   1.264       .  A
C1357      C2476   1.465       .  S
C1358      O2357   1.263       .  A
C1358      C2420   1.459       .  S
O1359      V1367   1.895       .  S
O1359      C1369   1.263       .  A
O1360      V1367   1.899       .  S
O1360      C1370   1.264       .  A
O1361      V1367   1.899       .  S
O1361      C1371   1.264       .  A
O1362      V1367   1.900       .  S
O1362      C1372   1.263       .  A
O1363      V1368   1.899       .  S
O1363      C2380   1.263       .  A
O1364      V1368   1.899       .  S
O1364      C2379   1.264       .  A
O1365      V1368   1.895       .  S
O1365      C2378   1.263       .  A
O1366      V1368   1.899       .  S
O1366      C2377   1.264       .  A
V1368      V2375   2.089       .  T
C1372      C1427   1.460       .  S
O1373      V1381   1.895       .  S
O1373      C1383   1.263       .  A
O1374      C1384   1.264       .  A
O1375      V1381   1.899       .  S
O1375      C1385   1.264       .  A
O1376      V1381   1.899       .  S
O1376      C1386   1.263       .  A
O1377      V1382   1.899       .  S
O1378      V1382   1.899       .  S
O1379      V1382   1.895       .  S
O1379      C1384   1.263       .  A
O1380      V1718   1.899       .  S
O1380      C1383   1.264       .  A
V1381      O1710   1.899       .  S
V1381      V1718   2.089       .  T
C1383      C1400   1.462       .  S
C1384      C1399   1.462       .  S
C1385      O1714   1.264       .  A
C1385      C1496   1.465       .  S
C1386      O1713   1.263       .  A
C1386      C1442   1.459       .  S
O1387      V1395   1.899       .  S
O1387      C1397   1.264       .  A
O1388      V1395   1.899       .  S
O1388      C1398   1.263       .  A
O1389      V1395   1.899       .  S
O1389      C1399   1.264       .  A
O1390      V1395   1.895       .  S
O1390      C1400   1.263       .  A
O1391      V1396   1.899       .  S
O1391      C1400   1.264       .  A
O1392      V1396   1.895       .  S
O1392      C1399   1.263       .  A
O1393      V1396   1.900       .  S
O1393      C1398   1.263       .  A
O1394      V1396   1.899       .  S
O1394      C1397   1.264       .  A
V1395      V1396   2.089       .  T
C1397      C1510   1.465       .  S
C1398      C1456   1.459       .  S
O1401      V1409   1.899       .  S
O1401      C1411   1.264       .  A
O1402      V1409   1.899       .  S
O1402      C1412   1.263       .  A
O1403      V2417   1.899       .  S
O1403      C1413   1.264       .  A
O1404      V1409   1.895       .  S
O1404      C1414   1.263       .  A
O1405      C1750   1.264       .  A
O1406      V1410   1.895       .  S
O1406      C1749   1.263       .  A
O1407      V1410   1.899       .  S
O1407      C2756   1.263       .  A
O1408      V1410   1.899       .  S
O1408      C2755   1.264       .  A
V1410      O2413   1.899       .  S
V1410      V2753   2.089       .  T
C1411      C1579   1.465       .  S
C1413      C1440   1.462       .  S
C1414      C1439   1.462       .  S
O1415      C1425   1.264       .  A
O1416      V1423   1.896       .  S
O1416      C1426   1.263       .  A
O1417      V1423   1.900       .  S
O1417      C2435   1.263       .  A
O1418      V1423   1.899       .  S
O1418      C1428   1.264       .  A
O1419      V1424   1.899       .  S
O1420      V1424   1.900       .  S
O1420      C1427   1.263       .  A
O1421      V2432   1.899       .  S
O1421      C1426   1.264       .  A
O1422      V1424   1.896       .  S
O1422      C1425   1.263       .  A
V1423      O2423   1.899       .  S
V1423      V2432   2.089       .  T
C1425      C1453   1.462       .  S
C1426      C1454   1.462       .  S
C1428      O2427   1.264       .  A
C1428      C1596   1.465       .  S
O1429      V1437   1.895       .  S
O1429      C1775   1.263       .  A
O1430      V1437   1.899       .  S
O1430      C1776   1.264       .  A
O1431      V1437   1.899       .  S
O1431      C1777   1.264       .  A
O1432      V1437   1.899       .  S
O1432      C1442   1.263       .  A
O1433      V1438   1.899       .  S
O1434      V1438   1.899       .  S
O1434      C1441   1.264       .  A
O1435      V1438   1.895       .  S
O1435      C1440   1.263       .  A
O1436      V1438   1.899       .  S
O1436      C1439   1.264       .  A
V1437      V1774   2.089       .  T
C1442      O1769   1.263       .  A
O1443      V1451   1.895       .  S
O1443      C1453   1.263       .  A
O1444      V1451   1.899       .  S
O1444      C1454   1.264       .  A
O1445      V1451   1.899       .  S
O1445      C1455   1.264       .  A
O1446      V1451   1.900       .  S
O1446      C1456   1.263       .  A
O1447      V1452   1.899       .  S
O1447      C1456   1.263       .  A
O1448      V1452   1.899       .  S
O1448      C1455   1.264       .  A
O1449      V1452   1.895       .  S
O1449      C1454   1.263       .  A
O1450      V1452   1.899       .  S
O1450      C1453   1.264       .  A
V1451      V1452   2.089       .  T
C1455      C1621   1.465       .  S
O1457      V1465   1.899       .  S
O1458      V1465   1.899       .  S
O1459      V1801   1.895       .  S
O1459      C1469   1.263       .  A
O1460      V1465   1.899       .  S
O1460      C1470   1.264       .  A
O1461      C2478   1.263       .  A
O1462      V1466   1.899       .  S
O1462      C2477   1.264       .  A
O1463      V1466   1.899       .  S
O1463      C2476   1.264       .  A
O1464      V1466   1.900       .  S
O1464      C1467   1.263       .  A
V1466      O1797   1.896       .  S
V1466      V2809   2.089       .  T
C1467      O2801   1.263       .  A
C1467      C1523   1.459   1_554  S
C1468      O1794   1.264       .  A
C1469      C1484   1.462       .  S
C1470      C1483   1.462       .  S
O1471      V1479   1.900       .  S
O1472      V1479   1.899       .  S
O1473      V1479   1.895       .  S
O1473      C1483   1.263       .  A
O1474      V1479   1.899       .  S
O1474      C1484   1.264       .  A
O1475      V1480   1.895       .  S
O1475      C2492   1.263       .  A
O1476      V1480   1.899       .  S
O1476      C2491   1.264       .  A
O1477      V1480   1.899       .  S
O1477      C1482   1.264       .  A
O1478      V1480   1.899       .  S
O1478      C1481   1.263       .  A
V1480      V2487   2.089       .  T
C1481      O2479   1.263       .  A
C1481      C2545   1.459   1_554  S
C1482      O2480   1.264       .  A
C1482      C2379   1.465       .  S
O1485      V1493   1.900       .  S
O1485      C1495   1.263       .  A
O1486      V1493   1.899       .  S
O1486      C1496   1.264       .  A
O1487      C1497   1.263       .  A
O1488      V1493   1.899       .  S
O1488      C1498   1.264       .  A
O1489      V1830   1.895       .  S
O1489      C1498   1.263       .  A
O1490      V1494   1.899       .  S
O1490      C1497   1.264       .  A
O1491      V1494   1.899       .  S
O1492      V1494   1.899       .  S
V1493      O1823   1.895       .  S
V1493      V1830   2.089       .  T
C1495      O1828   1.263       .  A
C1495      C1551   1.460   1_554  S
C1496      O1827   1.264       .  A
C1497      C1511   1.462       .  S
C1498      C1512   1.462       .  S
O1499      V1507   1.900       .  S
O1499      C1509   1.263       .  A
O1500      V1507   1.899       .  S
O1500      C1510   1.264       .  A
O1501      V1507   1.895       .  S
O1501      C1511   1.263       .  A
O1502      V1507   1.899       .  S
O1502      C1512   1.264       .  A
O1503      V1508   1.895       .  S
O1503      C1512   1.263       .  A
O1504      V1508   1.899       .  S
O1504      C1511   1.264       .  A
O1505      V1508   1.899       .  S
O1505      C1510   1.264       .  A
O1506      V1508   1.900       .  S
O1506      C1509   1.263       .  A
V1507      V1508   2.089       .  T
C1509      C1565   1.460   1_554  S
O1513      V1521   1.900       .  S
O1514      V1521   1.899       .  S
O1515      C1525   1.263       .  A
O1516      V2529   1.899       .  S
O1516      C1526   1.264       .  A
O1517      V1858   1.895       .  S
O1517      C1526   1.263       .  A
O1518      C1525   1.264       .  A
O1519      V1522   1.899       .  S
O1520      V1522   1.900       .  S
V1521      O1851   1.895       .  S
V1522      O2526   1.899       .  S
V1522      V2193   2.089       .  T
C1523      O2521   1.263       .  A
C1523      O1856   1.263       .  A
C1524      O2522   1.264       .  A
C1524      O1855   1.264       .  A
C1524      C1638   1.465       .  S
C1525      C1567   1.462       .  S
C1526      C1568   1.462       .  S
O1527      V1535   1.900       .  S
O1527      C1537   1.263       .  A
O1528      V1535   1.899       .  S
O1529      V1535   1.896       .  S
O1529      C1539   1.263       .  A
O1530      V2543   1.899       .  S
O1530      C1540   1.264       .  A
O1531      V1536   1.896       .  S
O1531      C1540   1.263       .  A
O1532      C1539   1.264       .  A
O1533      V1536   1.899       .  S
O1533      C1538   1.264       .  A
O1534      V1536   1.899       .  S
O1534      C2545   1.263       .  A
V1536      O2540   1.899       .  S
V1536      V2543   2.089       .  T
C1538      O2536   1.264       .  A
C1538      C1650   1.465       .  S
C1539      C1554   1.462       .  S
C1540      C1553   1.462       .  S
O1541      V1549   1.900       .  S
O1541      C1551   1.263       .  A
O1542      V1549   1.899       .  S
O1542      C1552   1.264       .  A
O1543      C1553   1.263       .  A
O1544      V1549   1.899       .  S
O1544      C1554   1.264       .  A
O1545      V1886   1.895       .  S
O1545      C1554   1.263       .  A
O1546      V1550   1.899       .  S
O1546      C1553   1.264       .  A
O1547      V1550   1.899       .  S
O1548      V1550   1.899       .  S
V1549      O1879   1.895       .  S
V1549      V1886   2.089       .  T
C1551      O1884   1.263       .  A
C1552      O1883   1.264       .  A
C1552      C1665   1.465       .  S
O1555      V1563   1.900       .  S
O1555      C1565   1.263       .  A
O1556      V1563   1.899       .  S
O1556      C1566   1.264       .  A
O1557      V1563   1.896       .  S
O1557      C1567   1.263       .  A
O1558      V1563   1.899       .  S
O1558      C1568   1.264       .  A
O1559      V1564   1.895       .  S
O1559      C1568   1.263       .  A
O1560      V1564   1.899       .  S
O1560      C1567   1.264       .  A
O1561      V1564   1.899       .  S
O1561      C1566   1.264       .  A
O1562      V1564   1.900       .  S
O1562      C1565   1.263       .  A
V1563      V1564   2.089       .  T
C1566      C1679   1.465       .  S
O1569      V1577   1.899       .  S
O1569      C1579   1.264       .  A
O1570      V1577   1.900       .  S
O1571      V1577   1.899       .  S
O1571      C1581   1.264       .  A
O1572      V2585   1.896       .  S
O1572      C1582   1.263       .  A
O1573      V1578   1.899       .  S
O1573      C1918   1.264       .  A
O1574      C1917   1.263       .  A
O1575      V1578   1.900       .  S
O1575      C2588   1.263       .  A
O1576      V1578   1.899       .  S
O1576      C2923   1.264       .  A
V1578      O2582   1.896       .  S
V1578      V2921   2.089       .  T
C1580      O1906   1.263       .  A
C1581      C1610   1.462       .  S
C1582      C1609   1.462       .  S
O1583      V1591   1.899       .  S
O1583      C1593   1.264       .  A
O1584      V2599   1.895       .  S
O1584      C1594   1.263       .  A
O1585      V1591   1.899       .  S
O1586      V1591   1.899       .  S
O1587      V1592   1.899       .  S
O1587      C1596   1.264       .  A
O1588      V1592   1.900       .  S
O1588      C1595   1.263       .  A
O1589      V1592   1.899       .  S
O1589      C1594   1.264       .  A
O1590      C1593   1.263       .  A
V1592      O2598   1.896       .  S
V1592      V2599   2.089       .  T
C1593      C1624   1.462       .  S
C1594      C1623   1.462       .  S
C1595      O2593   1.263       .  A
C1595      C1649   1.460       .  S
C1596      O2594   1.264       .  A
O1597      V1605   1.899       .  S
O1598      V1605   1.900       .  S
O1599      V1605   1.899       .  S
O1599      C1609   1.264       .  A
O1600      V1605   1.895       .  S
O1600      C1610   1.263       .  A
O1601      V1606   1.899       .  S
O1601      C1946   1.264       .  A
O1602      V1606   1.895       .  S
O1602      C1945   1.263       .  A
O1603      V1606   1.899       .  S
O1603      C1608   1.263       .  A
O1604      V1606   1.899       .  S
O1604      C1607   1.264       .  A
V1606      V1941   2.089       .  T
C1607      O1933   1.264       .  A
C1607      C1777   1.465       .  S
C1608      O1934   1.263       .  A
C1608      C1666   1.459       .  S
O1611      V1619   1.899       .  S
O1611      C1621   1.264       .  A
O1612      V1619   1.899       .  S
O1612      C1622   1.263       .  A
O1613      V1619   1.899       .  S
O1613      C1623   1.264       .  A
O1614      V1619   1.895       .  S
O1614      C1624   1.263       .  A
O1615      V1620   1.899       .  S
O1615      C1624   1.264       .  A
O1616      V1620   1.895       .  S
O1616      C1623   1.263       .  A
O1617      V1620   1.899       .  S
O1617      C1622   1.263       .  A
O1618      V1620   1.899       .  S
O1618      C1621   1.264       .  A
V1619      V1620   2.089       .  T
C1622      C1680   1.459       .  S
O1625      V1969   1.899       .  S
O1625      C1635   1.264       .  A
O1626      C1636   1.263       .  A
O1627      V1633   1.899       .  S
O1628      V1633   1.899       .  S
O1629      V1634   1.899       .  S
O1630      V1634   1.899       .  S
O1631      C1636   1.264       .  A
O1632      V2642   1.895       .  S
O1632      C1635   1.263       .  A
V1633      O2634   1.895       .  S
V1633      V2306   2.089       .  T
V1634      O1967   1.899       .  S
C1635      C1678   1.462       .  S
C1636      C1677   1.462       .  S
C1637      O1963   1.263       .  A
C1637      O2638   1.263       .  A
C1637      C2588   1.460       .  S
C1638      O1964   1.264       .  A
C1638      O2637   1.264       .  A
O1639      V1647   1.900       .  S
O1639      C1649   1.263       .  A
O1640      V1647   1.899       .  S
O1640      C1650   1.264       .  A
O1641      C1651   1.263       .  A
O1642      V1647   1.899       .  S
O1642      C1652   1.264       .  A
O1643      V2656   1.895       .  S
O1643      C1652   1.263       .  A
O1644      V1648   1.899       .  S
O1644      C1651   1.264       .  A
O1645      V1648   1.899       .  S
O1646      V1648   1.899       .  S
V1647      O2649   1.896       .  S
V1647      V2656   2.089       .  T
C1649      O2654   1.263       .  A
C1650      O2653   1.264       .  A
C1651      C1663   1.462       .  S
C1652      C1664   1.462       .  S
O1653      V1661   1.896       .  S
O1653      C1663   1.263       .  A
O1654      C1664   1.264       .  A
O1655      V1661   1.899       .  S
O1655      C1665   1.264       .  A
O1656      V1661   1.900       .  S
O1656      C1666   1.263       .  A
O1657      V1662   1.900       .  S
O1658      V1662   1.899       .  S
O1659      V1662   1.895       .  S
O1659      C1664   1.263       .  A
O1660      V1998   1.899       .  S
O1660      C1663   1.264       .  A
V1661      O1990   1.899       .  S
V1661      V1998   2.089       .  T
C1665      O1994   1.264       .  A
C1666      O1993   1.263       .  A
O1667      V1675   1.896       .  S
O1667      C1677   1.263       .  A
O1668      V1675   1.899       .  S
O1668      C1678   1.264       .  A
O1669      V1675   1.899       .  S
O1669      C1679   1.264       .  A
O1670      V1675   1.899       .  S
O1670      C1680   1.263       .  A
O1671      V1676   1.899       .  S
O1671      C1680   1.263       .  A
O1672      V1676   1.899       .  S
O1672      C1679   1.264       .  A
O1673      V1676   1.895       .  S
O1673      C1678   1.263       .  A
O1674      V1676   1.899       .  S
O1674      C1677   1.264       .  A
V1675      V1676   2.089       .  T
O1681      V1689   1.895       .  S
O1681      C2699   1.263       .  A
O1682      C2700   1.264       .  A
O1683      V1689   1.899       .  S
O1683      C1693   1.264   1_565  A
O1684      V1689   1.900       .  S
O1685      V1690   1.900       .  S
O1686      V1690   1.899       .  S
O1687      V1690   1.895       .  S
O1687      C1692   1.263       .  A
O1688      C1691   1.264       .  A
V1689      V2026   2.089   1_565  T
C1691      C1705   1.462       .  S
C1692      C1706   1.462       .  S
C1693      O2022   1.264       .  A
C1693      C2812   1.465       .  S
C1694      O2693   1.263       .  A
C1694      C2756   1.459       .  S
O1695      V1703   1.896       .  S
O1695      C1705   1.263       .  A
O1696      V1703   1.899       .  S
O1696      C1706   1.264       .  A
O1697      V1703   1.899       .  S
O1697      C1707   1.264       .  A
O1698      V1703   1.900       .  S
O1698      C1708   1.263       .  A
O1699      V1704   1.900       .  S
O1699      C2716   1.263       .  A
O1700      V1704   1.899       .  S
O1700      C2715   1.264       .  A
O1701      V1704   1.896       .  S
O1701      C2714   1.263       .  A
O1702      V1704   1.899       .  S
O1702      C2713   1.264       .  A
V1704      V2711   2.089       .  T
C1708      C1763   1.460       .  S
O1709      V1717   1.895       .  S
O1709      C1719   1.263       .  A
O1710      C1720   1.264       .  A
O1711      V1717   1.899       .  S
O1711      C1721   1.264       .  A
O1712      V1717   1.900       .  S
O1712      C1722   1.263       .  A
O1713      V1718   1.899       .  S
O1714      V1718   1.899       .  S
O1715      V1718   1.895       .  S
O1715      C1720   1.263       .  A
O1716      C1719   1.264       .  A
C1719      C1736   1.462       .  S
C1720      C1735   1.462       .  S
C1721      C1832   1.465       .  S
C1722      C1778   1.459       .  S
O1723      V1731   1.899       .  S
O1723      C1733   1.264       .  A
O1724      V1731   1.899       .  S
O1724      C1734   1.263       .  A
O1725      V1731   1.899       .  S
O1725      C1735   1.264       .  A
O1726      V1731   1.895       .  S
O1726      C1736   1.263       .  A
O1727      V1732   1.899       .  S
O1727      C1736   1.264       .  A
O1728      V1732   1.896       .  S
O1728      C1735   1.263       .  A
O1729      V1732   1.899       .  S
O1729      C1734   1.263       .  A
O1730      V1732   1.899       .  S
O1730      C1733   1.264       .  A
V1731      V1732   2.089       .  T
C1733      C1846   1.465       .  S
C1734      C1792   1.459       .  S
O1737      V1745   1.899       .  S
O1737      C1747   1.264       .  A
O1738      V1745   1.899       .  S
O1738      C1748   1.263       .  A
O1739      V2753   1.899       .  S
O1739      C1749   1.264       .  A
O1740      V1745   1.895       .  S
O1740      C1750   1.263       .  A
O1742      V1746   1.896       .  S
O1743      V1746   1.900       .  S
O1743      C2084   1.263       .  A
O1744      V1746   1.899       .  S
O1744      C2083   1.264       .  A
V1746      O2749   1.899       .  S
V1746      V2081   2.089   1_565  T
C1747      C1915   1.465       .  S
C1749      C1776   1.462       .  S
C1750      C1775   1.462       .  S
O1751      C1761   1.264       .  A
O1752      V1759   1.895       .  S
O1752      C1762   1.263       .  A
O1753      V1759   1.899       .  S
O1753      C2771   1.263       .  A
O1754      V1759   1.899       .  S
O1754      C1764   1.264       .  A
O1755      V1760   1.899       .  S
O1756      V1760   1.900       .  S
O1756      C1763   1.263       .  A
O1757      V2768   1.899       .  S
O1757      C1762   1.264       .  A
O1758      V1760   1.895       .  S
O1758      C1761   1.263       .  A
V1759      O2759   1.899       .  S
V1759      V2768   2.089       .  T
C1761      C1789   1.462       .  S
C1762      C1790   1.462       .  S
C1764      O2763   1.264       .  A
C1764      C1932   1.465       .  S
O1765      V1773   1.895       .  S
O1766      V1773   1.899       .  S
O1767      V1773   1.899       .  S
O1768      V1773   1.900       .  S
O1768      C1778   1.263       .  A
O1769      V1774   1.899       .  S
O1770      V1774   1.899       .  S
O1770      C1777   1.264       .  A
O1771      V1774   1.895       .  S
O1771      C1776   1.263       .  A
O1772      V1774   1.899       .  S
O1772      C1775   1.264       .  A
O1779      V1787   1.895       .  S
O1779      C1789   1.263       .  A
O1780      V1787   1.899       .  S
O1780      C1790   1.264       .  A
O1781      V1787   1.899       .  S
O1781      C1791   1.264       .  A
O1782      V1787   1.899       .  S
O1782      C1792   1.263       .  A
O1783      V1788   1.899       .  S
O1783      C1792   1.263       .  A
O1784      V1788   1.899       .  S
O1784      C1791   1.264       .  A
O1785      V1788   1.895       .  S
O1785      C1790   1.263       .  A
O1786      V1788   1.899       .  S
O1786      C1789   1.264       .  A
V1787      V1788   2.089       .  T
C1791      C1957   1.465       .  S
O1793      V1801   1.900       .  S
O1794      V1801   1.899       .  S
O1795      C1805   1.263       .  A
O1796      V1801   1.899       .  S
O1796      C1806   1.264       .  A
O1797      C2814   1.263       .  A
O1798      V1802   1.899       .  S
O1798      C2813   1.264       .  A
O1799      V1802   1.899       .  S
O1799      C2812   1.264   1_565  A
O1800      V1802   1.900       .  S
O1800      C1803   1.263   1_565  A
V1802      V2137   2.089   1_565  T
C1803      O2129   1.263       .  A
C1803      C1859   1.460   1_554  S
C1805      C1820   1.462       .  S
C1806      C1819   1.462       .  S
O1807      V1815   1.900       .  S
O1808      V1815   1.899       .  S
O1809      V1815   1.895       .  S
O1809      C1819   1.263       .  A
O1810      V1815   1.899       .  S
O1810      C1820   1.264       .  A
O1811      V1816   1.896       .  S
O1811      C2828   1.263       .  A
O1812      V1816   1.900       .  S
O1812      C2827   1.264       .  A
O1813      V1816   1.899       .  S
O1813      C1818   1.264       .  A
O1814      V1816   1.900       .  S
O1814      C1817   1.263       .  A
V1816      V2823   2.089       .  T
C1817      O2815   1.263       .  A
C1817      C2881   1.460   1_554  S
C1818      O2816   1.264       .  A
C1818      C2715   1.465       .  S
O1821      V1829   1.899       .  S
O1821      C1831   1.263   1_565  A
O1822      V1829   1.899       .  S
O1822      C1832   1.264       .  A
O1823      C1833   1.263       .  A
O1824      V1829   1.899       .  S
O1824      C1834   1.264       .  A
O1825      C1834   1.263       .  A
O1826      V1830   1.899       .  S
O1826      C1833   1.264       .  A
O1827      V1830   1.899       .  S
O1828      V1830   1.900       .  S
C1831      C1887   1.459   1_554  S
C1833      C1847   1.462       .  S
C1834      C1848   1.462       .  S
O1835      V1843   1.900       .  S
O1835      C1845   1.263       .  A
O1836      V1843   1.899       .  S
O1836      C1846   1.264       .  A
O1837      V1843   1.895       .  S
O1837      C1847   1.263       .  A
O1838      V1843   1.899       .  S
O1838      C1848   1.264       .  A
O1839      V1844   1.895       .  S
O1839      C1848   1.263       .  A
O1840      V1844   1.899       .  S
O1840      C1847   1.264       .  A
O1841      V1844   1.899       .  S
O1841      C1846   1.264       .  A
O1842      V1844   1.900       .  S
O1842      C1845   1.263       .  A
V1843      V1844   2.089       .  T
C1845      C1901   1.460   1_554  S
O1849      V1857   1.900       .  S
O1850      V1857   1.899       .  S
O1851      C1861   1.263       .  A
O1852      V2865   1.899       .  S
O1852      C1862   1.264       .  A
O1853      C1862   1.263       .  A
O1854      C1861   1.264       .  A
O1855      V1858   1.899       .  S
O1856      V1858   1.899       .  S
V1858      O2862   1.899       .  S
V1858      V2529   2.089       .  T
C1859      O2857   1.263   1_545  A
C1860      O2858   1.264       .  A
C1860      C1974   1.465       .  S
C1861      C1903   1.462       .  S
C1862      C1904   1.462       .  S
O1863      V1871   1.900       .  S
O1863      C1873   1.263       .  A
O1864      V1871   1.899       .  S
O1865      V1871   1.896       .  S
O1865      C1875   1.263       .  A
O1866      V2879   1.899       .  S
O1866      C1876   1.264       .  A
O1867      V1872   1.895       .  S
O1867      C1876   1.263       .  A
O1868      C1875   1.264       .  A
O1869      V1872   1.899       .  S
O1869      C1874   1.264       .  A
O1870      V1872   1.900       .  S
O1870      C2881   1.263       .  A
V1872      O2876   1.899       .  S
V1872      V2879   2.089       .  T
C1874      O2872   1.264       .  A
C1874      C1986   1.465       .  S
C1875      C1890   1.462       .  S
C1876      C1889   1.462       .  S
O1877      V1885   1.899       .  S
O1877      C1887   1.263   1_565  A
O1878      V1885   1.899       .  S
O1878      C1888   1.264   1_565  A
O1879      C1889   1.263       .  A
O1880      V1885   1.899       .  S
O1880      C1890   1.264       .  A
O1881      C1890   1.263       .  A
O1882      V1886   1.899       .  S
O1882      C1889   1.264       .  A
O1883      V1886   1.899       .  S
O1884      V1886   1.900       .  S
C1888      C2001   1.465       .  S
O1891      V1899   1.900       .  S
O1891      C1901   1.263       .  A
O1892      V1899   1.899       .  S
O1892      C1902   1.264       .  A
O1893      V1899   1.895       .  S
O1893      C1903   1.263       .  A
O1894      V1899   1.899       .  S
O1894      C1904   1.264       .  A
O1895      V1900   1.895       .  S
O1895      C1904   1.263       .  A
O1896      V1900   1.899       .  S
O1896      C1903   1.264       .  A
O1897      V1900   1.899       .  S
O1897      C1902   1.264       .  A
O1898      V1900   1.899       .  S
O1898      C1901   1.263       .  A
V1899      V1900   2.089       .  T
C1902      C2015   1.465       .  S
O1905      V1913   1.899       .  S
O1905      C1915   1.264       .  A
O1906      V1913   1.899       .  S
O1907      V1913   1.899       .  S
O1907      C1917   1.264       .  A
O1908      V2921   1.895       .  S
O1908      C1918   1.263       .  A
O1909      V1914   1.899       .  S
O1911      V1914   1.899       .  S
O1911      C2924   1.263   1_565  A
O1912      V1914   1.899       .  S
O1912      C2251   1.264       .  A
V1914      O2918   1.895       .  S
V1914      V2249   2.089   1_565  T
C1917      C1946   1.462       .  S
C1918      C1945   1.462       .  S
O1919      V1927   1.899       .  S
O1919      C1929   1.264       .  A
O1920      V2935   1.895       .  S
O1920      C1930   1.263       .  A
O1921      V1927   1.899       .  S
O1922      V1927   1.899       .  S
O1923      V1928   1.899       .  S
O1923      C1932   1.264       .  A
O1924      V1928   1.899       .  S
O1924      C1931   1.263       .  A
O1925      V1928   1.899       .  S
O1925      C1930   1.264       .  A
O1926      C1929   1.263       .  A
V1928      O2934   1.895       .  S
V1928      V2935   2.089       .  T
C1929      C1960   1.462       .  S
C1930      C1959   1.462       .  S
C1931      O2929   1.263       .  A
C1931      C1985   1.459       .  S
C1932      O2930   1.264       .  A
O1933      V1941   1.899       .  S
O1934      V1941   1.899       .  S
O1935      V1941   1.899       .  S
O1935      C1945   1.264       .  A
O1936      V1941   1.895       .  S
O1936      C1946   1.263       .  A
O1937      V1942   1.899       .  S
O1938      V1942   1.896       .  S
O1939      V1942   1.900       .  S
O1939      C1944   1.263   1_565  A
O1940      V1942   1.899       .  S
O1940      C1943   1.264       .  A
C1944      C2002   1.460       .  S
O1947      V1955   1.899       .  S
O1947      C1957   1.264       .  A
O1948      V1955   1.900       .  S
O1948      C1958   1.263       .  A
O1949      V1955   1.899       .  S
O1949      C1959   1.264       .  A
O1950      V1955   1.895       .  S
O1950      C1960   1.263       .  A
O1951      V1956   1.899       .  S
O1951      C1960   1.264       .  A
O1952      V1956   1.895       .  S
O1952      C1959   1.263       .  A
O1953      V1956   1.900       .  S
O1953      C1958   1.263       .  A
O1954      V1956   1.899       .  S
O1954      C1957   1.264       .  A
V1955      V1956   2.089       .  T
C1958      C2016   1.460       .  S
O1961      C1971   1.264       .  A
O1962      C1972   1.263       .  A
O1963      V1969   1.900       .  S
O1964      V1969   1.899       .  S
O1965      V1970   1.899       .  S
O1966      V1970   1.900       .  S
O1967      C1972   1.264       .  A
O1968      V2978   1.895       .  S
O1968      C1971   1.263       .  A
V1969      O2970   1.895       .  S
V1969      V2642   2.089       .  T
C1971      C2014   1.462       .  S
C1972      C2013   1.462       .  S
C1973      O2974   1.263   1_545  A
C1973      C2924   1.459       .  S
C1974      O2973   1.264       .  A
O1975      V1983   1.899       .  S
O1975      C1985   1.263       .  A
O1976      V1983   1.899       .  S
O1976      C1986   1.264       .  A
O1977      C1987   1.263       .  A
O1978      V1983   1.899       .  S
O1978      C1988   1.264       .  A
O1979      V2992   1.895       .  S
O1979      C1988   1.263       .  A
O1980      V1984   1.899       .  S
O1980      C1987   1.264       .  A
O1981      V1984   1.899       .  S
O1982      V1984   1.899       .  S
V1983      O2985   1.895       .  S
V1983      V2992   2.089       .  T
C1985      O2990   1.263       .  A
C1986      O2989   1.264       .  A
C1987      C1999   1.462       .  S
C1988      C2000   1.462       .  S
O1989      V1997   1.896       .  S
O1989      C1999   1.263       .  A
O1990      C2000   1.264       .  A
O1991      V1997   1.899       .  S
O1991      C2001   1.264   1_565  A
O1992      V1997   1.900       .  S
O1992      C2002   1.263   1_565  A
O1993      V1998   1.900       .  S
O1994      V1998   1.899       .  S
O1995      V1998   1.895       .  S
O1995      C2000   1.263       .  A
O1996      C1999   1.264       .  A
O2003      V2011   1.895       .  S
O2003      C2013   1.263       .  A
O2004      V2011   1.899       .  S
O2004      C2014   1.264       .  A
O2005      V2011   1.899       .  S
O2005      C2015   1.264       .  A
O2006      V2011   1.900       .  S
O2006      C2016   1.263       .  A
O2007      V2012   1.900       .  S
O2007      C2016   1.263       .  A
O2008      V2012   1.899       .  S
O2008      C2015   1.264       .  A
O2009      V2012   1.896       .  S
O2009      C2014   1.263       .  A
O2010      V2012   1.899       .  S
O2010      C2013   1.264       .  A
V2011      V2012   2.089       .  T
O2017      V2025   1.895       .  S
O2018      V2697   1.899   1_545  S
O2019      V2025   1.899       .  S
O2019      C2029   1.264       .  A
O2020      V2025   1.900       .  S
O2020      C2366   1.263   1_655  A
O2021      V2026   1.900       .  S
O2022      V2026   1.899       .  S
O2023      V2026   1.896       .  S
O2023      C2028   1.263       .  A
O2024      V2362   1.899       .  S
O2024      C2027   1.264       .  A
V2025      O2354   1.899       .  S
V2026      O2696   1.899   1_545  S
C2027      C2041   1.462       .  S
C2028      C2042   1.462       .  S
C2030      O2692   1.263       .  A
O2031      V2039   1.895       .  S
O2031      C2041   1.263       .  A
O2032      V2039   1.899       .  S
O2032      C2042   1.264       .  A
O2033      V2039   1.899       .  S
O2033      C2043   1.264       .  A
O2034      V2039   1.900       .  S
O2034      C2044   1.263       .  A
O2035      V2040   1.899       .  S
O2036      V2040   1.899       .  S
O2037      V2040   1.895       .  S
O2038      V2040   1.899       .  S
C2044      C2099   1.460       .  S
O2045      V2053   1.895       .  S
O2045      C2055   1.263       .  A
O2046      V2725   1.899   1_545  S
O2046      C2056   1.264       .  A
O2047      V2053   1.899       .  S
O2047      C2057   1.264       .  A
O2048      V2053   1.900       .  S
O2048      C2058   1.263       .  A
O2049      V2054   1.899       .  S
O2049      C2730   1.263   1_545  A
O2050      V2054   1.899       .  S
O2050      C2729   1.264   1_545  A
O2051      V2054   1.895       .  S
O2051      C2056   1.263       .  A
O2052      V2390   1.899       .  S
O2052      C2055   1.264       .  A
V2053      O2382   1.899       .  S
V2053      V2390   2.089       .  T
V2054      O2724   1.899   1_545  S
V2054      V2725   2.089   1_545  T
C2055      C2072   1.462       .  S
C2056      C2071   1.462       .  S
C2057      O2386   1.264       .  A
C2057      C2168   1.465       .  S
C2058      O2385   1.263       .  A
C2058      C2114   1.460       .  S
O2059      V2067   1.899       .  S
O2059      C2069   1.264       .  A
O2060      V2067   1.899       .  S
O2060      C2070   1.263       .  A
O2061      V2067   1.899       .  S
O2061      C2071   1.264       .  A
O2062      V2067   1.895       .  S
O2062      C2072   1.263       .  A
O2063      V2068   1.899       .  S
O2063      C2072   1.264       .  A
O2064      V2068   1.895       .  S
O2064      C2071   1.263       .  A
O2065      V2068   1.899       .  S
O2065      C2070   1.263       .  A
O2066      V2068   1.899       .  S
O2066      C2069   1.264       .  A
V2067      V2068   2.089       .  T
C2069      C2182   1.465       .  S
C2070      C2128   1.459       .  S
O2073      V2081   1.899       .  S
O2073      C2083   1.264   1_545  A
O2074      V2081   1.899       .  S
O2074      C2084   1.263   1_545  A
O2075      C2085   1.264       .  A
O2076      V2081   1.895       .  S
O2076      C2086   1.263   1_545  A
O2077      C2422   1.264       .  A
O2078      V2082   1.895       .  S
O2078      C2421   1.263       .  A
O2079      V2082   1.899       .  S
O2080      V2082   1.899       .  S
C2083      C2251   1.465       .  S
C2085      O2750   1.263   1_545  A
C2085      C2112   1.462   1_545  S
C2086      O2749   1.264       .  A
C2086      C2111   1.462       .  S
O2087      C2097   1.264       .  A
O2088      V2095   1.896       .  S
O2088      C2098   1.263       .  A
O2089      V2095   1.900       .  S
O2090      V2095   1.900       .  S
O2090      C2100   1.264       .  A
O2091      V2096   1.899       .  S
O2092      V2096   1.900       .  S
O2092      C2099   1.263       .  A
O2093      C2098   1.264       .  A
O2094      V2096   1.895       .  S
O2094      C2097   1.263       .  A
C2097      C2125   1.462       .  S
C2098      C2126   1.462       .  S
C2100      C2268   1.465       .  S
O2101      V2109   1.895       .  S
O2101      C2447   1.263       .  A
O2102      V2109   1.899       .  S
O2102      C2448   1.264       .  A
O2103      V2109   1.899       .  S
O2103      C2449   1.264       .  A
O2104      V2109   1.899       .  S
O2104      C2114   1.263       .  A
O2105      V2110   1.899       .  S
O2105      C2786   1.263   1_545  A
O2106      V2110   1.899       .  S
O2106      C2113   1.264   1_545  A
O2107      V2110   1.895       .  S
O2107      C2112   1.263   1_545  A
O2108      V2110   1.899       .  S
O2108      C2111   1.264   1_545  A
V2109      V2446   2.089       .  T
V2110      V2781   2.089   1_545  T
C2111      O2773   1.263       .  A
C2112      O2774   1.264       .  A
C2113      O2775   1.264       .  A
C2113      C2951   1.465       .  S
C2114      O2441   1.263       .  A
O2115      V2123   1.895       .  S
O2115      C2125   1.263       .  A
O2116      V2123   1.899       .  S
O2116      C2126   1.264       .  A
O2117      V2123   1.899       .  S
O2117      C2127   1.264       .  A
O2118      V2123   1.899       .  S
O2118      C2128   1.263       .  A
O2119      V2124   1.899       .  S
O2119      C2128   1.263       .  A
O2120      V2124   1.899       .  S
O2120      C2127   1.264       .  A
O2121      V2124   1.895       .  S
O2121      C2126   1.263       .  A
O2122      V2124   1.899       .  S
O2122      C2125   1.264       .  A
V2123      V2124   2.089       .  T
C2127      C2293   1.465       .  S
O2129      V2137   1.900       .  S
O2130      V2137   1.899       .  S
O2130      C2812   1.264       .  A
O2131      V2473   1.895       .  S
O2131      C2141   1.263       .  A
O2132      V2137   1.899       .  S
O2132      C2142   1.264       .  A
O2133      V2810   1.895   1_545  S
O2134      V2138   1.899       .  S
O2135      V2138   1.899       .  S
O2136      V2138   1.899       .  S
O2136      C2139   1.263       .  A
V2137      O2803   1.896   1_545  S
V2138      O2469   1.895       .  S
C2139      C2195   1.459   1_654  S
C2140      O2466   1.264       .  A
C2141      C2156   1.462       .  S
C2142      C2155   1.462       .  S
O2143      V2151   1.900       .  S
O2144      V2151   1.899       .  S
O2145      V2151   1.895       .  S
O2145      C2155   1.263       .  A
O2146      V2151   1.899       .  S
O2146      C2156   1.264       .  A
O2147      V2152   1.895       .  S
O2148      V2152   1.899       .  S
O2149      V2152   1.899       .  S
O2149      C2154   1.264   1_655  A
O2150      V2152   1.899       .  S
O2150      C2153   1.263       .  A
O2157      V2165   1.900       .  S
O2157      C2167   1.263       .  A
O2158      V2165   1.899       .  S
O2158      C2168   1.264       .  A
O2159      V2837   1.895   1_545  S
O2159      C2169   1.263       .  A
O2160      V2165   1.899       .  S
O2160      C2170   1.264       .  A
O2161      V2502   1.895       .  S
O2161      C2170   1.263       .  A
O2162      V2166   1.899       .  S
O2162      C2169   1.264       .  A
O2163      V2166   1.899       .  S
O2163      C2840   1.264   1_545  A
O2164      V2166   1.899       .  S
O2164      C2839   1.263       .  A
V2165      O2495   1.895       .  S
V2165      V2502   2.089       .  T
V2166      O2833   1.895   1_545  S
V2166      V2837   2.089   1_545  T
C2167      O2500   1.263       .  A
C2167      C2223   1.460   1_554  S
C2168      O2499   1.264       .  A
C2169      C2183   1.462       .  S
C2170      C2184   1.462       .  S
O2171      V2179   1.900       .  S
O2171      C2181   1.263       .  A
O2172      V2179   1.899       .  S
O2172      C2182   1.264       .  A
O2173      V2179   1.895       .  S
O2173      C2183   1.263       .  A
O2174      V2179   1.899       .  S
O2174      C2184   1.264       .  A
O2175      V2180   1.895       .  S
O2175      C2184   1.263       .  A
O2176      V2180   1.899       .  S
O2176      C2183   1.264       .  A
O2177      V2180   1.899       .  S
O2177      C2182   1.264       .  A
O2178      V2180   1.900       .  S
O2178      C2181   1.263       .  A
V2179      V2180   2.089       .  T
C2181      C2237   1.460   1_554  S
O2185      V2193   1.900       .  S
O2186      V2193   1.899       .  S
O2187      V2865   1.895   1_545  S
O2187      C2197   1.263       .  A
O2188      C2198   1.264       .  A
O2189      V2530   1.895       .  S
O2189      C2198   1.263       .  A
O2190      C2197   1.264       .  A
O2191      V2194   1.899       .  S
O2191      C2868   1.264   1_545  A
O2192      V2194   1.899       .  S
O2192      C2867   1.263   1_545  A
V2193      O2523   1.896       .  S
V2194      O2861   1.895   1_545  S
C2195      O2528   1.263   1_455  A
C2196      O2527   1.264   1_455  A
C2196      C2310   1.465       .  S
C2197      C2239   1.462       .  S
C2198      C2240   1.462       .  S
O2199      V2207   1.900       .  S
O2199      C2209   1.263       .  A
O2200      V2207   1.899       .  S
O2201      V2207   1.896       .  S
O2201      C2211   1.263       .  A
O2202      C2212   1.264       .  A
O2203      V2208   1.895       .  S
O2203      C2212   1.263       .  A
O2204      C2211   1.264       .  A
O2205      V2208   1.899       .  S
O2205      C2210   1.264       .  A
O2206      V2208   1.899       .  S
C2210      C2322   1.465       .  S
C2211      C2226   1.462       .  S
C2212      C2225   1.462       .  S
O2213      V2221   1.900       .  S
O2213      C2223   1.263       .  A
O2214      V2221   1.899       .  S
O2214      C2224   1.264       .  A
O2215      V2893   1.895   1_545  S
O2215      C2225   1.263       .  A
O2216      V2221   1.899       .  S
O2216      C2226   1.264       .  A
O2217      V2558   1.895       .  S
O2217      C2226   1.263       .  A
O2218      V2222   1.899       .  S
O2218      C2225   1.264       .  A
O2219      V2222   1.899       .  S
O2219      C2896   1.264   1_545  A
O2220      V2222   1.900       .  S
O2220      C2895   1.263       .  A
V2221      O2551   1.895       .  S
V2221      V2558   2.089       .  T
V2222      O2889   1.895   1_545  S
V2222      V2893   2.089   1_545  T
C2223      O2556   1.263       .  A
C2224      O2555   1.264       .  A
C2224      C2337   1.465       .  S
O2227      V2235   1.900       .  S
O2227      C2237   1.263       .  A
O2228      V2235   1.899       .  S
O2228      C2238   1.264       .  A
O2229      V2235   1.896       .  S
O2229      C2239   1.263       .  A
O2230      V2235   1.899       .  S
O2230      C2240   1.264       .  A
O2231      V2236   1.896       .  S
O2231      C2240   1.263       .  A
O2232      V2236   1.899       .  S
O2232      C2239   1.264       .  A
O2233      V2236   1.900       .  S
O2233      C2238   1.264       .  A
O2234      V2236   1.900       .  S
O2234      C2237   1.263       .  A
V2235      V2236   2.089       .  T
C2238      C2351   1.465       .  S
O2241      V2249   1.899       .  S
O2241      C2251   1.264   1_545  A
O2242      V2249   1.900       .  S
O2242      C2924   1.263       .  A
O2243      V2249   1.899       .  S
O2243      C2253   1.264       .  A
O2244      C2254   1.263       .  A
O2245      V2250   1.899       .  S
O2245      C2590   1.264       .  A
O2246      C2589   1.263       .  A
O2247      V2250   1.900       .  S
O2248      V2250   1.899       .  S
C2252      O2578   1.263       .  A
C2253      O2918   1.263   1_545  A
C2253      C2282   1.462   1_545  S
C2254      O2917   1.264   1_545  A
C2254      C2281   1.462       .  S
O2255      V2263   1.899       .  S
O2255      C2265   1.264       .  A
O2256      C2266   1.263       .  A
O2257      V2263   1.899       .  S
O2258      V2263   1.899       .  S
O2259      V2264   1.900       .  S
O2259      C2268   1.264       .  A
O2260      V2264   1.900       .  S
O2260      C2267   1.263       .  A
O2261      V2264   1.899       .  S
O2261      C2266   1.264       .  A
O2262      C2265   1.263       .  A
C2265      C2296   1.462       .  S
C2266      C2295   1.462       .  S
C2267      C2321   1.460   1_655  S
O2269      V2277   1.899       .  S
O2269      C2951   1.264   1_545  A
O2270      V2277   1.899       .  S
O2270      C2952   1.263       .  A
O2271      V2277   1.899       .  S
O2271      C2281   1.264       .  A
O2272      V2277   1.895       .  S
O2272      C2282   1.263   1_545  A
O2273      V2278   1.899       .  S
O2273      C2618   1.264       .  A
O2274      V2278   1.895       .  S
O2274      C2617   1.263       .  A
O2275      V2278   1.899       .  S
O2275      C2280   1.263       .  A
O2276      V2278   1.899       .  S
O2276      C2279   1.264       .  A
V2277      V2950   2.089   1_545  T
V2278      V2613   2.089       .  T
C2279      O2605   1.264       .  A
C2279      C2449   1.465       .  S
C2280      O2606   1.263       .  A
C2280      C2338   1.459       .  S
C2281      O2946   1.263   1_545  A
C2282      O2945   1.264       .  A
O2283      V2291   1.899       .  S
O2283      C2293   1.264       .  A
O2284      V2291   1.900       .  S
O2284      C2294   1.263       .  A
O2285      V2291   1.899       .  S
O2285      C2295   1.264       .  A
O2286      V2291   1.895       .  S
O2286      C2296   1.263       .  A
O2287      V2292   1.899       .  S
O2287      C2296   1.264       .  A
O2288      V2292   1.895       .  S
O2288      C2295   1.263       .  A
O2289      V2292   1.899       .  S
O2289      C2294   1.263       .  A
O2290      V2292   1.899       .  S
O2290      C2293   1.264       .  A
V2291      V2292   2.089       .  T
C2294      C2352   1.460       .  S
O2297      V2641   1.899       .  S
O2297      C2307   1.264       .  A
O2298      C2308   1.263       .  A
O2299      V2305   1.900       .  S
O2299      C2981   1.263       .  A
O2300      V2305   1.899       .  S
O2300      C2982   1.264   1_545  A
O2301      V2306   1.899       .  S
O2302      V2306   1.900       .  S
O2303      V2978   1.899   1_545  S
O2303      C2308   1.264       .  A
O2304      C2307   1.263       .  A
V2305      O2969   1.899   1_545  S
V2306      O2639   1.899       .  S
C2307      C2350   1.462       .  S
C2308      C2349   1.462       .  S
C2309      O2635   1.263   1_455  A
C2310      O2636   1.264   1_455  A
O2311      V2319   1.900       .  S
O2311      C2321   1.263   1_655  A
O2312      V2319   1.899       .  S
O2312      C2322   1.264       .  A
O2313      C2323   1.263       .  A
O2314      V2319   1.899       .  S
O2314      C2324   1.264       .  A
O2315      C2324   1.263       .  A
O2316      V2320   1.899       .  S
O2316      C2323   1.264       .  A
O2317      V2320   1.899       .  S
O2318      V2320   1.899       .  S
C2323      C2335   1.462       .  S
C2324      C2336   1.462       .  S
O2325      V2333   1.895       .  S
O2325      C2335   1.263       .  A
O2326      V3005   1.899   1_545  S
O2326      C2336   1.264       .  A
O2327      V2333   1.899       .  S
O2327      C2337   1.264       .  A
O2328      V2333   1.899       .  S
O2328      C2338   1.263       .  A
O2329      V2334   1.899       .  S
O2329      C3010   1.263       .  A
O2330      V2334   1.899       .  S
O2330      C3009   1.264   1_545  A
O2331      V2334   1.895       .  S
O2331      C2336   1.263       .  A
O2332      V2670   1.899       .  S
O2332      C2335   1.264       .  A
V2333      O2662   1.899       .  S
V2333      V2670   2.089       .  T
V2334      O3004   1.899   1_545  S
V2334      V3005   2.089   1_545  T
C2337      O2666   1.264       .  A
C2338      O2665   1.263       .  A
O2339      V2347   1.895       .  S
O2339      C2349   1.263       .  A
O2340      V2347   1.899       .  S
O2340      C2350   1.264       .  A
O2341      V2347   1.900       .  S
O2341      C2351   1.264       .  A
O2342      V2347   1.900       .  S
O2342      C2352   1.263       .  A
O2343      V2348   1.900       .  S
O2343      C2352   1.263       .  A
O2344      V2348   1.899       .  S
O2344      C2351   1.264       .  A
O2345      V2348   1.895       .  S
O2345      C2350   1.263       .  A
O2346      V2348   1.899       .  S
O2346      C2349   1.264       .  A
V2347      V2348   2.089       .  T
O2353      V2361   1.895       .  S
O2355      V2361   1.899       .  S
O2355      C2365   1.264   1_655  A
O2356      V2361   1.900       .  S
O2356      C2702   1.263       .  A
O2357      V2362   1.899       .  S
O2358      V2362   1.899       .  S
O2359      V2362   1.895       .  S
O2359      C2364   1.263       .  A
O2360      V2698   1.899       .  S
O2360      C2363   1.264       .  A
V2361      O2690   1.899       .  S
C2363      C2377   1.462       .  S
C2364      C2378   1.462       .  S
O2367      V2375   1.895       .  S
O2367      C2377   1.263       .  A
O2368      V2375   1.899       .  S
O2368      C2378   1.264       .  A
O2369      V2375   1.899       .  S
O2369      C2379   1.264       .  A
O2370      V2375   1.900       .  S
O2370      C2380   1.263       .  A
O2371      V2376   1.899       .  S
O2372      V2376   1.899       .  S
O2373      V2376   1.896       .  S
O2374      V2376   1.899       .  S
C2380      C2435   1.459       .  S
O2381      V2389   1.895       .  S
O2381      C2391   1.263       .  A
O2382      C2392   1.264       .  A
O2383      V2389   1.899       .  S
O2383      C2393   1.264       .  A
O2384      V2389   1.900       .  S
O2384      C2394   1.263       .  A
O2385      V2390   1.900       .  S
O2386      V2390   1.899       .  S
O2387      V2390   1.895       .  S
O2387      C2392   1.263       .  A
O2388      V2726   1.899       .  S
O2388      C2391   1.264       .  A
V2389      O2718   1.899       .  S
V2389      V2726   2.089       .  T
C2391      C2408   1.462       .  S
C2392      C2407   1.462       .  S
C2393      O2722   1.264       .  A
C2393      C2504   1.465       .  S
C2394      O2721   1.263       .  A
C2394      C2450   1.460       .  S
O2395      V2403   1.899       .  S
O2395      C2405   1.264       .  A
O2396      V2403   1.899       .  S
O2396      C2406   1.263       .  A
O2397      V2403   1.899       .  S
O2397      C2407   1.264       .  A
O2398      V2403   1.895       .  S
O2398      C2408   1.263       .  A
O2399      V2404   1.899       .  S
O2399      C2408   1.264       .  A
O2400      V2404   1.895       .  S
O2400      C2407   1.263       .  A
O2401      V2404   1.900       .  S
O2401      C2406   1.263       .  A
O2402      V2404   1.899       .  S
O2402      C2405   1.264       .  A
V2403      V2404   2.089       .  T
C2405      C2518   1.465       .  S
C2406      C2464   1.459       .  S
O2409      V2417   1.899       .  S
O2409      C2419   1.264       .  A
O2410      V2417   1.899       .  S
O2410      C2420   1.263       .  A
O2411      C2421   1.264       .  A
O2412      V2417   1.895       .  S
O2412      C2422   1.263       .  A
O2413      C2758   1.264       .  A
O2414      V2418   1.895       .  S
O2414      C2757   1.263       .  A
O2415      V2418   1.900       .  S
O2416      V2418   1.899       .  S
C2419      C2587   1.465       .  S
C2421      C2448   1.462       .  S
C2422      C2447   1.462       .  S
O2423      C2433   1.264       .  A
O2424      V2431   1.895       .  S
O2424      C2434   1.263       .  A
O2425      V2431   1.899       .  S
O2426      V2431   1.899       .  S
O2426      C2436   1.264   1_655  A
O2427      V2432   1.899       .  S
O2428      V2432   1.900       .  S
O2428      C2435   1.263       .  A
O2429      C2434   1.264       .  A
O2430      V2432   1.895       .  S
O2430      C2433   1.263       .  A
C2433      C2461   1.462       .  S
C2434      C2462   1.462       .  S
C2436      C2604   1.465       .  S
O2437      V2445   1.896       .  S
O2437      C2783   1.263       .  A
O2438      V2445   1.899       .  S
O2438      C2784   1.264       .  A
O2439      V2445   1.899       .  S
O2439      C2785   1.264       .  A
O2440      V2445   1.900       .  S
O2440      C2450   1.263       .  A
O2441      V2446   1.900       .  S
O2442      V2446   1.899       .  S
O2442      C2449   1.264       .  A
O2443      V2446   1.895       .  S
O2443      C2448   1.263       .  A
O2444      V2446   1.899       .  S
O2444      C2447   1.264       .  A
V2445      V2782   2.089       .  T
C2450      O2777   1.263       .  A
O2451      V2459   1.895       .  S
O2451      C2461   1.263       .  A
O2452      V2459   1.899       .  S
O2452      C2462   1.264       .  A
O2453      V2459   1.899       .  S
O2453      C2463   1.264       .  A
O2454      V2459   1.899       .  S
O2454      C2464   1.263       .  A
O2455      V2460   1.899       .  S
O2455      C2464   1.263       .  A
O2456      V2460   1.899       .  S
O2456      C2463   1.264       .  A
O2457      V2460   1.895       .  S
O2457      C2462   1.263       .  A
O2458      V2460   1.899       .  S
O2458      C2461   1.264       .  A
V2459      V2460   2.089       .  T
C2463      C2629   1.465       .  S
O2465      V2473   1.899       .  S
O2466      V2473   1.899       .  S
O2467      V2809   1.896       .  S
O2467      C2477   1.263       .  A
O2468      V2473   1.899       .  S
O2468      C2478   1.264       .  A
O2470      V2474   1.899       .  S
O2471      V2474   1.899       .  S
O2472      V2474   1.900       .  S
O2472      C2475   1.263       .  A
V2474      O2805   1.895       .  S
C2475      C2531   1.459   1_554  S
C2476      O2802   1.264       .  A
C2477      C2492   1.462       .  S
C2478      C2491   1.462       .  S
O2479      V2487   1.900       .  S
O2480      V2487   1.899       .  S
O2481      V2487   1.895       .  S
O2481      C2491   1.263       .  A
O2482      V2487   1.899       .  S
O2482      C2492   1.264       .  A
O2483      V2488   1.896       .  S
O2484      V2488   1.899       .  S
O2485      V2488   1.899       .  S
O2485      C2490   1.264       .  A
O2486      V2488   1.899       .  S
O2486      C2489   1.263       .  A
O2493      V2501   1.899       .  S
O2493      C2503   1.263       .  A
O2494      V2501   1.899       .  S
O2494      C2504   1.264       .  A
O2495      C2505   1.263       .  A
O2496      V2501   1.899       .  S
O2496      C2506   1.264       .  A
O2497      V2838   1.895       .  S
O2497      C2506   1.263       .  A
O2498      V2502   1.899       .  S
O2498      C2505   1.264       .  A
O2499      V2502   1.899       .  S
O2500      V2502   1.900       .  S
V2501      O2831   1.896       .  S
V2501      V2838   2.089       .  T
C2503      O2836   1.263       .  A
C2503      C2559   1.459   1_554  S
C2504      O2835   1.264       .  A
C2505      C2519   1.462       .  S
C2506      C2520   1.462       .  S
O2507      V2515   1.900       .  S
O2507      C2517   1.263       .  A
O2508      V2515   1.899       .  S
O2508      C2518   1.264       .  A
O2509      V2515   1.895       .  S
O2509      C2519   1.263       .  A
O2510      V2515   1.899       .  S
O2510      C2520   1.264       .  A
O2511      V2516   1.895       .  S
O2511      C2520   1.263       .  A
O2512      V2516   1.899       .  S
O2512      C2519   1.264       .  A
O2513      V2516   1.899       .  S
O2513      C2518   1.264       .  A
O2514      V2516   1.899       .  S
O2514      C2517   1.263       .  A
V2515      V2516   2.089       .  T
C2517      C2573   1.459   1_554  S
O2521      V2529   1.900       .  S
O2522      V2529   1.899       .  S
O2523      C2533   1.263       .  A
O2524      C2534   1.264       .  A
O2525      V2866   1.895       .  S
O2525      C2534   1.263       .  A
O2526      C2533   1.264       .  A
O2527      V2530   1.899       .  S
O2528      V2530   1.899       .  S
V2529      O2859   1.895       .  S
C2531      O2864   1.263       .  A
C2532      O2863   1.264   1_455  A
C2532      C2646   1.465       .  S
C2533      C2575   1.462       .  S
C2534      C2576   1.462       .  S
O2535      V2543   1.899       .  S
O2535      C2545   1.263       .  A
O2536      V2543   1.899       .  S
O2537      V2543   1.896       .  S
O2537      C2547   1.263       .  A
O2538      C2548   1.264       .  A
O2539      V2544   1.895       .  S
O2539      C2548   1.263       .  A
O2540      C2547   1.264       .  A
O2541      V2544   1.899       .  S
O2541      C2546   1.264       .  A
O2542      V2544   1.899       .  S
C2546      C2658   1.465       .  S
C2547      C2562   1.462       .  S
C2548      C2561   1.462       .  S
O2549      V2557   1.899       .  S
O2549      C2559   1.263       .  A
O2550      V2557   1.899       .  S
O2550      C2560   1.264       .  A
O2551      C2561   1.263       .  A
O2552      V2557   1.899       .  S
O2552      C2562   1.264       .  A
O2553      V2894   1.896       .  S
O2553      C2562   1.263       .  A
O2554      V2558   1.899       .  S
O2554      C2561   1.264       .  A
O2555      V2558   1.899       .  S
O2556      V2558   1.899       .  S
V2557      O2887   1.896       .  S
V2557      V2894   2.089       .  T
C2559      O2892   1.263       .  A
C2560      O2891   1.264       .  A
C2560      C2673   1.465       .  S
O2563      V2571   1.900       .  S
O2563      C2573   1.263       .  A
O2564      V2571   1.899       .  S
O2564      C2574   1.264       .  A
O2565      V2571   1.896       .  S
O2565      C2575   1.263       .  A
O2566      V2571   1.899       .  S
O2566      C2576   1.264       .  A
O2567      V2572   1.895       .  S
O2567      C2576   1.263       .  A
O2568      V2572   1.899       .  S
O2568      C2575   1.264       .  A
O2569      V2572   1.899       .  S
O2569      C2574   1.264       .  A
O2570      V2572   1.899       .  S
O2570      C2573   1.263       .  A
V2571      V2572   2.089       .  T
C2574      C2687   1.465       .  S
O2577      V2585   1.899       .  S
O2577      C2587   1.264       .  A
O2578      V2585   1.899       .  S
O2579      V2585   1.899       .  S
O2579      C2589   1.264       .  A
O2580      C2590   1.263       .  A
O2581      V2586   1.899       .  S
O2581      C2926   1.264       .  A
O2582      C2925   1.263       .  A
O2583      V2586   1.899       .  S
O2584      V2586   1.899       .  S
C2588      O2914   1.263       .  A
C2589      C2618   1.462       .  S
C2590      C2617   1.462       .  S
O2591      V2599   1.899       .  S
O2591      C2601   1.264       .  A
O2592      C2602   1.263       .  A
O2593      V2599   1.900       .  S
O2594      V2599   1.899       .  S
O2595      V2600   1.899       .  S
O2595      C2604   1.264   1_655  A
O2596      V2600   1.899       .  S
O2596      C2603   1.263       .  A
O2597      V2600   1.899       .  S
O2597      C2602   1.264       .  A
O2598      C2601   1.263       .  A
C2601      C2632   1.462       .  S
C2602      C2631   1.462       .  S
C2603      C2657   1.459       .  S
O2605      V2613   1.899       .  S
O2606      V2613   1.899       .  S
O2607      V2613   1.899       .  S
O2607      C2617   1.264       .  A
O2608      V2613   1.895       .  S
O2608      C2618   1.263       .  A
O2609      V2614   1.899       .  S
O2609      C2954   1.264       .  A
O2610      V2614   1.895       .  S
O2610      C2953   1.263       .  A
O2611      V2614   1.900       .  S
O2611      C2616   1.263       .  A
O2612      V2614   1.899       .  S
O2612      C2615   1.264       .  A
V2614      V2949   2.089       .  T
C2615      O2941   1.264       .  A
C2615      C2785   1.465       .  S
C2616      O2942   1.263       .  A
C2616      C2674   1.460       .  S
O2619      V2627   1.899       .  S
O2619      C2629   1.264       .  A
O2620      V2627   1.899       .  S
O2620      C2630   1.263       .  A
O2621      V2627   1.899       .  S
O2621      C2631   1.264       .  A
O2622      V2627   1.895       .  S
O2622      C2632   1.263       .  A
O2623      V2628   1.899       .  S
O2623      C2632   1.264       .  A
O2624      V2628   1.895       .  S
O2624      C2631   1.263       .  A
O2625      V2628   1.900       .  S
O2625      C2630   1.263       .  A
O2626      V2628   1.899       .  S
O2626      C2629   1.264       .  A
V2627      V2628   2.089       .  T
C2630      C2688   1.460       .  S
O2633      V2977   1.899       .  S
O2633      C2643   1.264       .  A
O2634      C2644   1.263       .  A
O2635      V2641   1.899       .  S
O2636      V2641   1.899       .  S
O2637      V2642   1.899       .  S
O2638      V2642   1.900       .  S
O2639      C2644   1.264       .  A
O2640      C2643   1.263       .  A
V2642      O2975   1.899       .  S
C2643      C2686   1.462       .  S
C2644      C2685   1.462       .  S
C2645      O2971   1.263       .  A
C2646      O2972   1.264   1_455  A
O2647      V2655   1.900       .  S
O2647      C2657   1.263       .  A
O2648      V2655   1.899       .  S
O2648      C2658   1.264       .  A
O2649      C2659   1.263       .  A
O2650      V2655   1.899       .  S
O2650      C2660   1.264       .  A
O2651      C2660   1.263       .  A
O2652      V2656   1.899       .  S
O2652      C2659   1.264       .  A
O2653      V2656   1.899       .  S
O2654      V2656   1.900       .  S
C2659      C2671   1.462       .  S
C2660      C2672   1.462       .  S
O2661      V2669   1.896       .  S
O2661      C2671   1.263       .  A
O2662      C2672   1.264       .  A
O2663      V2669   1.899       .  S
O2663      C2673   1.264       .  A
O2664      V2669   1.900       .  S
O2664      C2674   1.263       .  A
O2665      V2670   1.899       .  S
O2666      V2670   1.899       .  S
O2667      V2670   1.895       .  S
O2667      C2672   1.263       .  A
O2668      V3006   1.899       .  S
O2668      C2671   1.264       .  A
V2669      O2998   1.899       .  S
V2669      V3006   2.089       .  T
C2673      O3002   1.264       .  A
C2674      O3001   1.263       .  A
O2675      V2683   1.895       .  S
O2675      C2685   1.263       .  A
O2676      V2683   1.899       .  S
O2676      C2686   1.264       .  A
O2677      V2683   1.899       .  S
O2677      C2687   1.264       .  A
O2678      V2683   1.900       .  S
O2678      C2688   1.263       .  A
O2679      V2684   1.899       .  S
O2679      C2688   1.263       .  A
O2680      V2684   1.899       .  S
O2680      C2687   1.264       .  A
O2681      V2684   1.895       .  S
O2681      C2686   1.263       .  A
O2682      V2684   1.899       .  S
O2682      C2685   1.264       .  A
V2683      V2684   2.089       .  T
O2689      V2697   1.895       .  S
O2691      V2697   1.899       .  S
O2691      C2701   1.264       .  A
O2692      V2697   1.899       .  S
O2693      V2698   1.899       .  S
O2694      V2698   1.899       .  S
O2695      V2698   1.895       .  S
O2695      C2700   1.263       .  A
O2696      C2699   1.264       .  A
C2699      C2713   1.462       .  S
C2700      C2714   1.462       .  S
O2703      V2711   1.895       .  S
O2703      C2713   1.263       .  A
O2704      V2711   1.899       .  S
O2704      C2714   1.264       .  A
O2705      V2711   1.899       .  S
O2705      C2715   1.264       .  A
O2706      V2711   1.900       .  S
O2706      C2716   1.263       .  A
O2707      V2712   1.899       .  S
O2708      V2712   1.899       .  S
O2709      V2712   1.896       .  S
O2710      V2712   1.899       .  S
C2716      C2771   1.459       .  S
O2717      V2725   1.895       .  S
O2717      C2727   1.263       .  A
O2718      C2728   1.264       .  A
O2719      V2725   1.899       .  S
O2719      C2729   1.264       .  A
O2720      V2725   1.900       .  S
O2720      C2730   1.263       .  A
O2721      V2726   1.900       .  S
O2722      V2726   1.899       .  S
O2723      V2726   1.896       .  S
O2723      C2728   1.263       .  A
O2724      C2727   1.264       .  A
C2727      C2744   1.462       .  S
C2728      C2743   1.462       .  S
C2729      C2840   1.465       .  S
C2730      C2786   1.459       .  S
O2731      V2739   1.900       .  S
O2731      C2741   1.264       .  A
O2732      V2739   1.900       .  S
O2732      C2742   1.263       .  A
O2733      V2739   1.899       .  S
O2733      C2743   1.264       .  A
O2734      V2739   1.895       .  S
O2734      C2744   1.263       .  A
O2735      V2740   1.899       .  S
O2735      C2744   1.264       .  A
O2736      V2740   1.896       .  S
O2736      C2743   1.263       .  A
O2737      V2740   1.900       .  S
O2737      C2742   1.263       .  A
O2738      V2740   1.899       .  S
O2738      C2741   1.264       .  A
V2739      V2740   2.089       .  T
C2741      C2854   1.465       .  S
C2742      C2800   1.460       .  S
O2745      V2753   1.899       .  S
O2745      C2755   1.264       .  A
O2746      V2753   1.900       .  S
O2746      C2756   1.263       .  A
O2747      C2757   1.264       .  A
O2748      V2753   1.896       .  S
O2748      C2758   1.263       .  A
O2750      V2754   1.895       .  S
O2751      V2754   1.899       .  S
O2752      V2754   1.899       .  S
C2755      C2923   1.465       .  S
C2757      C2784   1.462       .  S
C2758      C2783   1.462       .  S
O2759      C2769   1.264       .  A
O2760      V2767   1.896       .  S
O2760      C2770   1.263       .  A
O2761      V2767   1.899       .  S
O2762      V2767   1.899       .  S
O2762      C2772   1.264       .  A
O2763      V2768   1.899       .  S
O2764      V2768   1.899       .  S
O2764      C2771   1.263       .  A
O2765      C2770   1.264       .  A
O2766      V2768   1.895       .  S
O2766      C2769   1.263       .  A
C2769      C2797   1.462       .  S
C2770      C2798   1.462       .  S
C2772      C2940   1.465       .  S
O2773      V2781   1.895       .  S
O2774      V2781   1.899       .  S
O2775      V2781   1.899       .  S
O2776      V2781   1.900       .  S
O2776      C2786   1.263       .  A
O2777      V2782   1.900       .  S
O2778      V2782   1.899       .  S
O2778      C2785   1.264       .  A
O2779      V2782   1.895       .  S
O2779      C2784   1.263       .  A
O2780      V2782   1.899       .  S
O2780      C2783   1.264       .  A
O2787      V2795   1.895       .  S
O2787      C2797   1.263       .  A
O2788      V2795   1.899       .  S
O2788      C2798   1.264       .  A
O2789      V2795   1.899       .  S
O2789      C2799   1.264       .  A
O2790      V2795   1.900       .  S
O2790      C2800   1.263       .  A
O2791      V2796   1.900       .  S
O2791      C2800   1.263       .  A
O2792      V2796   1.900       .  S
O2792      C2799   1.264       .  A
O2793      V2796   1.896       .  S
O2793      C2798   1.263       .  A
O2794      V2796   1.899       .  S
O2794      C2797   1.264       .  A
V2795      V2796   2.089       .  T
C2799      C2965   1.465       .  S
O2801      V2809   1.899       .  S
O2802      V2809   1.899       .  S
O2803      C2813   1.263       .  A
O2804      V2809   1.899       .  S
O2804      C2814   1.264       .  A
O2806      V2810   1.899       .  S
O2807      V2810   1.899       .  S
O2808      V2810   1.899       .  S
O2808      C2811   1.263       .  A
C2811      C2867   1.459   1_554  S
C2813      C2828   1.462       .  S
C2814      C2827   1.462       .  S
O2815      V2823   1.900       .  S
O2816      V2823   1.899       .  S
O2817      V2823   1.895       .  S
O2817      C2827   1.263       .  A
O2818      V2823   1.899       .  S
O2818      C2828   1.264       .  A
O2819      V2824   1.896       .  S
O2820      V2824   1.899       .  S
O2821      V2824   1.899       .  S
O2821      C2826   1.264       .  A
O2822      V2824   1.899       .  S
O2822      C2825   1.263       .  A
O2829      V2837   1.900       .  S
O2829      C2839   1.263   1_565  A
O2830      V2837   1.899       .  S
O2830      C2840   1.264       .  A
O2831      C2841   1.263       .  A
O2832      V2837   1.899       .  S
O2832      C2842   1.264       .  A
O2833      C2842   1.263       .  A
O2834      V2838   1.899       .  S
O2834      C2841   1.264       .  A
O2835      V2838   1.899       .  S
O2836      V2838   1.899       .  S
C2839      C2895   1.460   1_554  S
C2841      C2855   1.462       .  S
C2842      C2856   1.462       .  S
O2843      V2851   1.899       .  S
O2843      C2853   1.263       .  A
O2844      V2851   1.899       .  S
O2844      C2854   1.264       .  A
O2845      V2851   1.895       .  S
O2845      C2855   1.263       .  A
O2846      V2851   1.899       .  S
O2846      C2856   1.264       .  A
O2847      V2852   1.895       .  S
O2847      C2856   1.263       .  A
O2848      V2852   1.899       .  S
O2848      C2855   1.264       .  A
O2849      V2852   1.899       .  S
O2849      C2854   1.264       .  A
O2850      V2852   1.899       .  S
O2850      C2853   1.263       .  A
V2851      V2852   2.089       .  T
C2853      C2909   1.459   1_554  S
O2857      V2865   1.899       .  S
O2858      V2865   1.899       .  S
O2859      C2869   1.263       .  A
O2860      C2870   1.264       .  A
O2861      C2870   1.263       .  A
O2862      C2869   1.264       .  A
O2863      V2866   1.899       .  S
O2864      V2866   1.899       .  S
C2868      C2982   1.465       .  S
C2869      C2911   1.462       .  S
C2870      C2912   1.462       .  S
O2871      V2879   1.900       .  S
O2871      C2881   1.263       .  A
O2872      V2879   1.899       .  S
O2873      V2879   1.895       .  S
O2873      C2883   1.263       .  A
O2874      C2884   1.264       .  A
O2875      V2880   1.896       .  S
O2875      C2884   1.263       .  A
O2876      C2883   1.264       .  A
O2877      V2880   1.899       .  S
O2877      C2882   1.264   1_655  A
O2878      V2880   1.899       .  S
C2882      C2994   1.465       .  S
C2883      C2898   1.462       .  S
C2884      C2897   1.462       .  S
O2885      V2893   1.900       .  S
O2885      C2895   1.263   1_565  A
O2886      V2893   1.899       .  S
O2886      C2896   1.264       .  A
O2887      C2897   1.263       .  A
O2888      V2893   1.899       .  S
O2888      C2898   1.264       .  A
O2889      C2898   1.263       .  A
O2890      V2894   1.899       .  S
O2890      C2897   1.264       .  A
O2891      V2894   1.899       .  S
O2892      V2894   1.899       .  S
C2896      C3009   1.465       .  S
O2899      V2907   1.899       .  S
O2899      C2909   1.263       .  A
O2900      V2907   1.899       .  S
O2900      C2910   1.264       .  A
O2901      V2907   1.895       .  S
O2901      C2911   1.263       .  A
O2902      V2907   1.899       .  S
O2902      C2912   1.264       .  A
O2903      V2908   1.895       .  S
O2903      C2912   1.263       .  A
O2904      V2908   1.899       .  S
O2904      C2911   1.264       .  A
O2905      V2908   1.899       .  S
O2905      C2910   1.264       .  A
O2906      V2908   1.899       .  S
O2906      C2909   1.263       .  A
V2907      V2908   2.090       .  T
C2910      C3023   1.464       .  S
O2913      V2921   1.899       .  S
O2913      C2923   1.264       .  A
O2914      V2921   1.899       .  S
O2915      V2921   1.899       .  S
O2915      C2925   1.264       .  A
O2916      C2926   1.263       .  A
O2917      V2922   1.899       .  S
O2919      V2922   1.899       .  S
O2920      V2922   1.899       .  S
C2925      C2954   1.462       .  S
C2926      C2953   1.462       .  S
O2927      V2935   1.899       .  S
O2927      C2937   1.264       .  A
O2928      C2938   1.263       .  A
O2929      V2935   1.899       .  S
O2930      V2935   1.899       .  S
O2931      V2936   1.899       .  S
O2931      C2940   1.264       .  A
O2932      V2936   1.899       .  S
O2932      C2939   1.263   1_655  A
O2933      V2936   1.900       .  S
O2933      C2938   1.264       .  A
O2934      C2937   1.263       .  A
C2937      C2968   1.462       .  S
C2938      C2967   1.462       .  S
C2939      C2993   1.459       .  S
O2941      V2949   1.899       .  S
O2942      V2949   1.900       .  S
O2943      V2949   1.899       .  S
O2943      C2953   1.264       .  A
O2944      V2949   1.895       .  S
O2944      C2954   1.263       .  A
O2945      V2950   1.899       .  S
O2946      V2950   1.895       .  S
O2947      V2950   1.899       .  S
O2947      C2952   1.263   1_565  A
O2948      V2950   1.899       .  S
O2948      C2951   1.264       .  A
C2952      C3010   1.459       .  S
O2955      V2963   1.899       .  S
O2955      C2965   1.264       .  A
O2956      V2963   1.899       .  S
O2956      C2966   1.263       .  A
O2957      V2963   1.900       .  S
O2957      C2967   1.264       .  A
O2958      V2963   1.896       .  S
O2958      C2968   1.263       .  A
O2959      V2964   1.899       .  S
O2959      C2968   1.264       .  A
O2960      V2964   1.896       .  S
O2960      C2967   1.263       .  A
O2961      V2964   1.900       .  S
O2961      C2966   1.263       .  A
O2962      V2964   1.899       .  S
O2962      C2965   1.264       .  A
V2963      V2964   2.089       .  T
C2966      C3024   1.459       .  S
O2969      C2979   1.264       .  A
O2970      C2980   1.263       .  A
O2971      V2977   1.899       .  S
O2972      V2977   1.899       .  S
O2973      V2978   1.899       .  S
O2974      V2978   1.900       .  S
O2975      C2980   1.264       .  A
O2976      C2979   1.263       .  A
C2979      C3022   1.462       .  S
C2980      C3021   1.462       .  S
O2983      V2991   1.899       .  S
O2983      C2993   1.263   1_655  A
O2984      V2991   1.899       .  S
O2984      C2994   1.264   1_655  A
O2985      C2995   1.263       .  A
O2986      V2991   1.899       .  S
O2986      C2996   1.264       .  A
O2987      C2996   1.263       .  A
O2988      V2992   1.899       .  S
O2988      C2995   1.264       .  A
O2989      V2992   1.899       .  S
O2990      V2992   1.899       .  S
C2995      C3007   1.462       .  S
C2996      C3008   1.462       .  S
O2997      V3005   1.895       .  S
O2997      C3007   1.263       .  A
O2998      C3008   1.264       .  A
O2999      V3005   1.899       .  S
O2999      C3009   1.264       .  A
O3000      V3005   1.899       .  S
O3000      C3010   1.263   1_565  A
O3001      V3006   1.900       .  S
O3002      V3006   1.899       .  S
O3003      V3006   1.896       .  S
O3003      C3008   1.263       .  A
O3004      C3007   1.264       .  A
O3011      V3019   1.895       .  S
O3011      C3021   1.263       .  A
O3012      V3019   1.899       .  S
O3012      C3022   1.264       .  A
O3013      V3019   1.899       .  S
O3013      C3023   1.264       .  A
O3014      V3019   1.899       .  S
O3014      C3024   1.263       .  A
O3015      V3020   1.899       .  S
O3015      C3024   1.263       .  A
O3016      V3020   1.899       .  S
O3016      C3023   1.264       .  A
O3017      V3020   1.895       .  S
O3017      C3022   1.263       .  A
O3018      V3020   1.899       .  S
O3018      C3021   1.264       .  A
V3019      V3020   2.089       .  T
