geometry optimzed in LAMMPS
_audit_creation_date              2020-11-30 
_audit_creation_method            'lammps2cif' 
_symmetry_space_group_name_H-M    'P1' 
_symmetry_Int_Tables_number       1 
_symmetry_cell_setting            triclinic 
loop_ 
_symmetry_equiv_pos_as_xyz 
  x,y,z 
_cell_length_a                    86.98754841 
_cell_length_b                    87.53983525869533 
_cell_length_c                    34.74402551142302 
_cell_angle_alpha                 90.11119608889635 
_cell_angle_beta                  90.01093698193488 
_cell_angle_gamma                 127.50302943792752 
loop_ 
_atom_site_label 
_atom_site_type_symbol 
_atom_site_fract_x 
_atom_site_fract_y 
_atom_site_fract_z 
_atom_site_charge 
C1          C  0.07174032  0.78875325  0.06175418    -0.02300
C2          C  0.19424573  0.92898797  0.00699721    -0.02300
C3          C  0.27676069  0.06602389  0.00030728    -0.02300
C4          C  0.92930385  0.71699765  0.99652711    -0.02300
C5          C  0.99945564  0.68224400  0.87988771    -0.02300
C6          C  0.98349232  0.67332293  0.16473146    -0.02300
C7          C  0.05251156  0.30395727  0.87215362    -0.02300
C8          C  0.02695789  0.28820131  0.15257638    -0.02300
N9          N  0.01402074  0.45422083  0.31295449    -0.27100
N10         N  0.02334581  0.46722217  0.34065828    -0.35000
C11         C  0.01826109  0.47892743  0.34013035     0.01200
C12         C  0.00504607  0.47324454  0.31088024     0.07300
C13         C  0.00245093  0.45730993  0.29450789    -0.05800
H14         H  0.02218710  0.48944080  0.36229594     0.07900
H15         H  0.99177914  0.44774748  0.27303156     0.09100
Cu16       Cu  0.03864257  0.46638925  0.38508606     0.44200
Cu17       Cu  0.01616816  0.43172924  0.30522148     0.42000
Cu18       Cu  0.04086368  0.42785751  0.38586904     0.43900
N19         N  0.04867313  0.46048871  0.43232241    -0.34500
N20         N  0.04922363  0.44576514  0.43256185    -0.28700
C21         C  0.05417404  0.44391215  0.46785086    -0.04800
C22         C  0.05681612  0.45818563  0.49106156     0.07400
C23         C  0.05326907  0.46849825  0.46760835     0.01200
H24         H  0.05475981  0.43239932  0.47640273     0.08800
H25         H  0.05281587  0.48011318  0.47610736     0.07900
N26         N  0.03205150  0.41152807  0.33656180    -0.35900
N27         N  0.02310016  0.41252671  0.30698115    -0.28100
C28         C  0.01988073  0.39969615  0.28009724    -0.03400
C29         C  0.02712919  0.39033146  0.29385427     0.05200
C30         C  0.03472191  0.39823174  0.32953007     0.03300
H31         H  0.01276205  0.39730234  0.25276378     0.08400
H32         H  0.04169842  0.39456688  0.34908950     0.07300
N33         N  0.98314490  0.49754381  0.31272128    -0.27100
N34         N  0.97391936  0.48482237  0.34081752    -0.35000
C35         C  0.97848372  0.47270214  0.34008406     0.01200
C36         C  0.99136115  0.47785910  0.31052581     0.07300
C37         C  0.99418892  0.49385495  0.29395133    -0.05800
H38         H  0.97486163  0.46258377  0.36282903     0.07900
H39         H  0.00488831  0.50320487  0.27242768     0.09100
Cu40       Cu  0.96131915  0.48747826  0.38814972     0.44200
Cu41       Cu  0.98224824  0.52094216  0.30532791     0.42000
Cu42       Cu  0.96353708  0.52859169  0.39051933     0.43900
N43         N  0.95804179  0.49753829  0.43896642    -0.34500
N44         N  0.95901144  0.51316503  0.43938390    -0.28700
C45         C  0.95955793  0.51842214  0.47591641    -0.04800
C46         C  0.95909883  0.50556442  0.49987216     0.07400
C47         C  0.95804942  0.49240427  0.47550099     0.01200
H48         H  0.96164482  0.53148250  0.48423561     0.08800
H49         H  0.95885058  0.48097485  0.48355589     0.07900
N50         N  0.96989198  0.54367086  0.34020835    -0.35900
N51         N  0.97692037  0.54144106  0.30875043    -0.28100
C52         C  0.97911171  0.55373254  0.28173536    -0.03400
C53         C  0.97304218  0.56392865  0.29725059     0.05200
C54         C  0.96741330  0.55718154  0.33428141     0.03300
H55         H  0.98449298  0.55502551  0.25292000     0.08400
H56         H  0.96185862  0.56175000  0.35549271     0.07300
N57         N  0.03773301  0.47054465  0.72188712    -0.27100
N58         N  0.04527290  0.48199896  0.69149937    -0.35000
C59         C  0.03962717  0.49323826  0.69097797     0.01200
C60         C  0.02780055  0.48881905  0.72216210     0.07300
C61         C  0.02673083  0.47419028  0.74105373    -0.05800
H62         H  0.04187742  0.50219460  0.66685301     0.07900
H63         H  0.01720224  0.46560434  0.76468734     0.09100
Cu64       Cu  0.05701502  0.47834645  0.64398471     0.44200
Cu65       Cu  0.04022105  0.44825223  0.73143655     0.42000
Cu66       Cu  0.05076922  0.43486029  0.64213098     0.43900
N67         N  0.05961756  0.46740510  0.59376845    -0.34500
N68         N  0.05728916  0.45104336  0.59345926    -0.28700
C69         C  0.05730174  0.44601508  0.55697928    -0.04800
C70         C  0.05940735  0.45974580  0.53300791     0.07400
C71         C  0.06088575  0.47316383  0.55725062     0.01200
H72         H  0.05446329  0.43260564  0.54855982     0.08800
H73         H  0.06149998  0.48543316  0.54898442     0.07900
N74         N  0.04602030  0.42096916  0.69340663    -0.35900
N75         N  0.04337367  0.42617323  0.72698763    -0.28100
C76         C  0.04309280  0.41509176  0.75452391    -0.03400
C77         C  0.04548799  0.40227884  0.73707706     0.05200
C78         C  0.04698950  0.40639144  0.69832049     0.03300
H79         H  0.04159072  0.41645256  0.78498810     0.08400
H80         H  0.04911242  0.39956439  0.67518045     0.07300
N81         N  0.00467426  0.51192085  0.72056336    -0.27100
N82         N  0.99462220  0.49825882  0.69425192    -0.35000
C83         C  0.99967268  0.48650987  0.69527111     0.01200
C84         C  0.01367151  0.49289783  0.72325423     0.07300
C85         C  0.01664901  0.50921632  0.73844499    -0.05800
H86         H  0.99538839  0.47563558  0.67371420     0.07900
H87         H  0.02806648  0.51945616  0.75811743     0.09100
Cu88       Cu  0.97927469  0.49882849  0.64926941     0.44200
Cu89       Cu  0.00411004  0.53555504  0.72592618     0.42000
Cu90       Cu  0.98611712  0.54313624  0.64061802     0.43900
N91         N  0.97105419  0.50595990  0.60060107    -0.34500
N92         N  0.97357693  0.52240193  0.59808768    -0.28700
C93         C  0.96860871  0.52407692  0.56271765    -0.04800
C94         C  0.96293506  0.50805140  0.54152136     0.07400
C95         C  0.96462613  0.49678631  0.56640793     0.01200
H96         H  0.97018857  0.53663717  0.55257311     0.08800
H97         H  0.96235534  0.48347895  0.55963290     0.07900
N98         N  0.99696518  0.56158060  0.68717813    -0.35900
N99         N  0.00231386  0.55835527  0.71984006    -0.28100
C100        C  0.00594516  0.57171365  0.74575903    -0.03400
C101        C  0.00299783  0.58406853  0.72826877     0.05200
C102        C  0.99759624  0.57722163  0.69094144     0.03300
H103        H  0.00991258  0.57208868  0.77544393     0.08400
H104        H  0.99376143  0.58281716  0.66831041     0.07300
C105        C  0.74408696  0.90989638  0.00043017    -0.02300
C106        C  0.95921033  0.17582992  0.00362188    -0.02300
C107        C  0.82013029  0.04785584  0.97586881    -0.02300
C108        C  0.09194707  0.24803638  0.01305564    -0.02300
C109        C  0.70929078  0.98467979  0.84600035    -0.02300
C110        C  0.69646109  0.97268893  0.11755778    -0.02300
C111        C  0.31736838  0.99574999  0.88574649    -0.02300
C112        C  0.31365625  0.00874847  0.16618471    -0.02300
N113        N  0.52031004  0.96185233  0.29451641    -0.27100
N114        N  0.50685567  0.95017596  0.32008563    -0.35000
C115        C  0.49349569  0.95321943  0.32116828     0.01200
C116        C  0.49864705  0.96769656  0.29566025     0.07300
C117        C  0.51586618  0.97294281  0.27945065    -0.05800
H118        H  0.48257885  0.94755175  0.34337564     0.07900
H119        H  0.52560062  0.98542536  0.26163115     0.09100
Cu120      Cu  0.50998928  0.93605624  0.36336666     0.44200
Cu121      Cu  0.54609726  0.96484967  0.28754066     0.42000
Cu122      Cu  0.55785231  0.95128265  0.37409609     0.43900
N123        N  0.51882004  0.92913230  0.41116530    -0.34500
N124        N  0.53669561  0.93476069  0.41450189    -0.28700
C125        C  0.53872976  0.92897900  0.44852587    -0.04800
C126        C  0.52136027  0.91952012  0.46801323     0.07400
C127        C  0.50902967  0.91995156  0.44362755     0.01200
H128        H  0.55220483  0.93240878  0.45910693     0.08800
H129        H  0.49432694  0.91463254  0.44954758     0.07900
N130        N  0.57552926  0.96240368  0.32669458    -0.35900
N131        N  0.57087048  0.96596859  0.29351915    -0.28100
C132        C  0.58408009  0.96959149  0.26705092    -0.03400
C133        C  0.59770254  0.96839120  0.28476355     0.05200
C134        C  0.59184208  0.96410416  0.32267835     0.03300
H135        H  0.58349211  0.97229164  0.23691990     0.08400
H136        H  0.59847814  0.96157602  0.34554867     0.07300
N137        N  0.47449541  0.98946461  0.31122235    -0.27100
N138        N  0.48803446  0.99775517  0.33823709    -0.35000
C139        C  0.49970380  0.99272142  0.33347164     0.01200
C140        C  0.49339902  0.98060648  0.30211175     0.07300
C141        C  0.47714755  0.97856504  0.28892065    -0.05800
H142        H  0.51081720  0.99607355  0.35375841     0.07900
H143        H  0.46728279  0.96890988  0.26652219     0.09100
Cu144      Cu  0.48840975  0.01200388  0.38621376     0.44200
Cu145      Cu  0.45241746  0.99260352  0.30904506     0.42000
Cu146      Cu  0.45330244  0.01901466  0.39335354     0.43900
N147        N  0.48442846  0.02204530  0.43625156    -0.34500
N148        N  0.47112436  0.02475074  0.43879356    -0.28700
C149        C  0.46998812  0.02899033  0.47536405    -0.04800
C150        C  0.48322286  0.02883271  0.49700226     0.07400
C151        C  0.49218768  0.02444016  0.47125555     0.01200
H152        H  0.45938497  0.03068039  0.48579948     0.08800
H153        H  0.50257470  0.02185273  0.47788266     0.07900
N154        N  0.43523741  0.01044962  0.34687532    -0.35900
N155        N  0.43446690  0.00090554  0.31636055    -0.28100
C156        C  0.42093677  0.99825833  0.29201678    -0.03400
C157        C  0.41299005  0.00645307  0.30846982     0.05200
C158        C  0.42237193  0.01402151  0.34300073     0.03300
H159        H  0.41731004  0.99112242  0.26436847     0.08400
H160        H  0.42019497  0.02179123  0.36369833     0.07300
N161        N  0.48193865  0.98340735  0.70502626    -0.27100
N162        N  0.49465112  0.99264159  0.67685401    -0.35000
C163        C  0.50390713  0.98495721  0.67120348     0.01200
C164        C  0.49687004  0.97018244  0.69704828     0.07300
C165        C  0.48278038  0.96937326  0.71790679    -0.05800
H166        H  0.51401038  0.98891674  0.64803426     0.07900
H167        H  0.47324083  0.95881847  0.73941622     0.09100
Cu168      Cu  0.49631505  0.01223760  0.64093914     0.44200
Cu169      Cu  0.46322622  0.98990118  0.72122132     0.42000
Cu170      Cu  0.46175171  0.02076330  0.65168592     0.43900
N171        N  0.49000953  0.02353103  0.59749706    -0.34500
N172        N  0.47664326  0.02615355  0.60066196    -0.28700
C173        C  0.47308678  0.02985791  0.56555661    -0.04800
C174        C  0.48475060  0.02938838  0.53918185     0.07400
C175        C  0.49535480  0.02546268  0.56052344     0.01200
H176        H  0.46178232  0.03121553  0.55932734     0.08800
H177        H  0.50490996  0.02245360  0.54962194     0.07900
N178        N  0.44753572  0.01220211  0.70430225    -0.35900
N179        N  0.44756388  0.00078484  0.72923513    -0.28100
C180        C  0.43554735  0.99710924  0.75851298    -0.03400
C181        C  0.42781005  0.00680755  0.75170165     0.05200
C182        C  0.43568918  0.01612489  0.71709606     0.03300
H183        H  0.43207845  0.98748234  0.78217385     0.08400
H184        H  0.43226562  0.02435498  0.70133126     0.07300
N185        N  0.51941552  0.94683283  0.68870539    -0.27100
N186        N  0.50488039  0.93665202  0.66409447    -0.35000
C187        C  0.49329192  0.94192486  0.66715673     0.01200
C188        C  0.50067997  0.95599817  0.69519945     0.07300
C189        C  0.51741040  0.95892850  0.70785365    -0.05800
H190        H  0.48170207  0.93755393  0.64723326     0.07900
H191        H  0.52831045  0.97032946  0.72673613     0.09100
Cu192      Cu  0.50423987  0.92042828  0.61974651     0.44200
Cu193      Cu  0.54307838  0.94623888  0.69008021     0.42000
Cu194      Cu  0.54448940  0.91885735  0.61407340     0.43900
N195        N  0.51159204  0.91318708  0.57004202    -0.34500
N196        N  0.52651269  0.91278385  0.56815641    -0.28700
C197        C  0.53088357  0.91287762  0.53108821    -0.04800
C198        C  0.51823267  0.91353785  0.50847935     0.07400
C199        C  0.50600384  0.91344112  0.53407794     0.01200
H200        H  0.54375488  0.91472033  0.52153357     0.08800
H201        H  0.49565933  0.91606917  0.52728373     0.07900
N202        N  0.56495672  0.93246431  0.65737829    -0.35900
N203        N  0.56483705  0.94291628  0.68474880    -0.28100
C204        C  0.58079682  0.95080435  0.70667266    -0.03400
C205        C  0.59137001  0.94500023  0.69230431     0.05200
C206        C  0.58090517  0.93340634  0.66107901     0.03300
H207        H  0.58453209  0.96019855  0.73103951     0.08400
H208        H  0.58480476  0.92650229  0.64194291     0.07300
C209        C  0.27168829  0.18325974  0.00683625    -0.02300
C210        C  0.20443266  0.23678673  0.00425292    -0.02300
C211        C  0.76245741  0.80328259  0.97407308    -0.02300
C212        C  0.81984822  0.73337645  0.96839201    -0.02300
N213        N  0.49378488  0.48720577  0.66440565    -0.27100
N214        N  0.49449681  0.50037528  0.64399049    -0.35000
C215        C  0.51309821  0.51455557  0.63514919     0.01200
C216        C  0.52444453  0.50987075  0.65027058     0.07300
C217        C  0.51175584  0.49242804  0.66835166    -0.05800
H218        H  0.51779160  0.52643105  0.61611609     0.07900
H219        H  0.51517997  0.48365835  0.68163362     0.09100
Cu220      Cu  0.47021730  0.49688105  0.62217735     0.44200
Cu221      Cu  0.46881943  0.46185478  0.68392187     0.42000
Cu222      Cu  0.42531213  0.45297202  0.65166940     0.43900
N223        N  0.44348249  0.48695489  0.59915650    -0.34500
N224        N  0.42707192  0.47095095  0.61121680    -0.28700
C225        C  0.41261747  0.46630990  0.58764179    -0.04800
C226        C  0.42020784  0.47984698  0.55872417     0.07400
C227        C  0.43983892  0.49289072  0.56708573     0.01200
H228        H  0.39812093  0.45287573  0.58906922     0.08800
H229        H  0.45093407  0.50451572  0.54896281     0.07900
N230        N  0.42576099  0.43507076  0.68868195    -0.35900
N231        N  0.44183844  0.43838985  0.70143492    -0.28100
C232        C  0.43729464  0.42515328  0.72813418    -0.03400
C233        C  0.41736426  0.41293692  0.73193073     0.05200
C234        C  0.41051099  0.41953927  0.70634030     0.03300
H235        H  0.44771793  0.42502981  0.74483105     0.08400
H236        H  0.39563259  0.41412460  0.70242827     0.07300
N237        N  0.57361276  0.53965307  0.61537524    -0.27100
N238        N  0.56841041  0.52229115  0.60783366    -0.35000
C239        C  0.55079725  0.50908517  0.62284502     0.01200
C240        C  0.54451455  0.51863775  0.63997885     0.07300
C241        C  0.55927772  0.53798918  0.63467356    -0.05800
H242        H  0.54216358  0.49378698  0.61714423     0.07900
H243        H  0.55901849  0.54987967  0.64166659     0.09100
Cu244      Cu  0.58147234  0.51751896  0.56508093     0.44200
Cu245      Cu  0.59865436  0.56441054  0.59397901     0.42000
Cu246      Cu  0.62437330  0.55965073  0.51998560     0.43900
N247        N  0.58799616  0.51915963  0.50739989    -0.34500
N248        N  0.60373271  0.53435486  0.49112851    -0.28700
C249        C  0.60097554  0.53330815  0.45290627    -0.04800
C250        C  0.58245791  0.51698497  0.44476055     0.07400
C251        C  0.57474295  0.50822042  0.47992413     0.01200
H252        H  0.61058315  0.54501564  0.43335779     0.08800
H253        H  0.55978019  0.49630269  0.48571276     0.07900
N254        N  0.63593785  0.58523854  0.54890266    -0.35900
N255        N  0.62593653  0.58684509  0.57497661    -0.28100
C256        C  0.63703497  0.60470857  0.58955775    -0.03400
C257        C  0.65491466  0.61496057  0.57188571     0.05200
C258        C  0.65377201  0.60219653  0.54612075     0.03300
H259        H  0.63279207  0.60956579  0.61301560     0.08400
H260        H  0.66521990  0.60478422  0.52789100     0.07300
C261        C  0.72579381  0.70831129  0.78257464    -0.02300
C262        C  0.69386598  0.67153965  0.05494386    -0.02300
C263        C  0.32672796  0.31225584  0.92926990    -0.02300
C264        C  0.30479265  0.27438260  0.20285563    -0.02300
N265        N  0.42183311  0.47033837  0.32571738    -0.27100
N266        N  0.43113662  0.48401847  0.35211769    -0.35000
C267        C  0.45027406  0.49395240  0.34686816     0.01200
C268        C  0.45317003  0.48632136  0.31548385     0.07300
C269        C  0.43487193  0.47144257  0.30257379    -0.05800
H270        H  0.46117448  0.50426488  0.36726009     0.07900
H271        H  0.43137121  0.46044228  0.28200908     0.09100
Cu272      Cu  0.41868295  0.48431871  0.40217741     0.44200
Cu273      Cu  0.39366263  0.44597757  0.33290381     0.42000
Cu274      Cu  0.37889224  0.43690019  0.43269928     0.43900
N275        N  0.40903966  0.47792259  0.45814683    -0.34500
N276        N  0.39422666  0.46050762  0.46931592    -0.28700
C277        C  0.39463414  0.45955346  0.50779892    -0.04800
C278        C  0.41078979  0.47702100  0.52144846     0.07400
C279        C  0.41942749  0.48841198  0.48916781     0.01200
H280        H  0.38559200  0.44627735  0.52385061     0.08800
H281        H  0.43358441  0.50225235  0.48773512     0.07900
N282        N  0.37010658  0.41530992  0.39281686    -0.35900
N283        N  0.37455512  0.41877408  0.35588744    -0.28100
C284        C  0.36880607  0.40240380  0.33836383    -0.03400
C285        C  0.36066599  0.38792915  0.36555343     0.05200
C286        C  0.36161496  0.39659837  0.39981924     0.03300
H287        H  0.37169450  0.40143191  0.30852529     0.08400
H288        H  0.35759955  0.39012561  0.42810330     0.07300
N289        N  0.49882951  0.49875326  0.28190639    -0.27100
N290        N  0.49856359  0.49318685  0.31750192    -0.35000
C291        C  0.48174133  0.48699379  0.33408819     0.01200
C292        C  0.47092497  0.48854084  0.30762505     0.07300
C293        C  0.48206399  0.49593172  0.27484057    -0.05800
H294        H  0.47811106  0.48269041  0.36389356     0.07900
H295        H  0.47898732  0.50053011  0.24902821     0.09100
Cu296      Cu  0.52162520  0.49668663  0.34564476     0.44200
Cu297      Cu  0.52313426  0.51455514  0.24737731     0.42000
Cu298      Cu  0.56605273  0.53196570  0.30167017     0.43900
N299        N  0.54789948  0.50602540  0.36972445    -0.34500
N300        N  0.56446181  0.51943074  0.35287368    -0.28700
C301        C  0.57922401  0.52437689  0.37590117    -0.04800
C302        C  0.57164086  0.51358434  0.40913338     0.07400
C303        C  0.55168370  0.50201827  0.40427473     0.01200
H304        H  0.59430269  0.53583469  0.36981169     0.08800
H305        H  0.54076521  0.49245605  0.42528558     0.07900
N306        N  0.56615418  0.54309186  0.24965020    -0.35900
N307        N  0.55068674  0.53641236  0.22827306    -0.28100
C308        C  0.55626680  0.54670855  0.19548058    -0.03400
C309        C  0.57621456  0.56046678  0.19676309     0.05200
C310        C  0.58189750  0.55779635  0.23152913     0.03300
H311        H  0.54659898  0.54426613  0.17250623     0.08400
H312        H  0.59652590  0.56576597  0.24257865     0.07300
C313        C  0.35449225  0.36817709  0.35896651     0.01500
C314        C  0.36678264  0.36556510  0.33860162     0.04300
C315        C  0.35922852  0.34756944  0.32209140    -0.11700
C316        C  0.33962059  0.33176851  0.32817616     0.23600
C317        C  0.32872350  0.33358401  0.35533181    -0.12300
C318        C  0.33573653  0.35191323  0.36920572     0.05100
C319        C  0.32943858  0.31487084  0.30145328     0.27500
C320        C  0.31484389  0.31171403  0.27740302    -0.13000
C321        C  0.30346597  0.29465979  0.25636852     0.05600
C322        C  0.31120638  0.28500534  0.24391472    -0.08900
C323        C  0.32585231  0.28776333  0.26968991     0.06400
C324        C  0.33333937  0.30146606  0.30034120    -0.13300
Br325      Br  0.30353774  0.31105745  0.37098941    -0.05400
Br326      Br  0.39407110  0.38662485  0.33350858     0.00200
Br327      Br  0.27632810  0.28112356  0.26802939     0.00700
Br328      Br  0.34857418  0.30191469  0.34155027    -0.03700
Br329      Br  0.31869239  0.35476098  0.39813841     0.00800
Br330      Br  0.37574613  0.34529781  0.28972205    -0.03000
Br331      Br  0.30900627  0.32974875  0.27421918    -0.03900
Br332      Br  0.33684961  0.27423430  0.26733684     0.00100
C333        C  0.31572380  0.28800037  0.16636706     0.01500
C334        C  0.30737306  0.27933901  0.13003188     0.04300
C335        C  0.31012567  0.29019965  0.09828513    -0.11700
C336        C  0.32635448  0.30929793  0.09541549     0.23600
C337        C  0.33739354  0.31850970  0.12897733    -0.12300
C338        C  0.33170740  0.30834655  0.16483483     0.05100
C339        C  0.33222290  0.31800723  0.05594717     0.27500
C340        C  0.34600225  0.31800264  0.03484028    -0.13000
C341        C  0.34648927  0.31926103  0.99404282     0.05600
C342        C  0.33214876  0.31926864  0.97331901    -0.08900
C343        C  0.32264016  0.32494419  0.99636941     0.06400
C344        C  0.32192815  0.32330422  0.03697258    -0.13300
Br345      Br  0.35890555  0.34553756  0.12583450    -0.05400
Br346      Br  0.28945720  0.25231551  0.12243629     0.00200
Br347      Br  0.36705369  0.32078802  0.96882545     0.00700
Br348      Br  0.30698433  0.32851497  0.06752379    -0.03700
Br349      Br  0.34708455  0.32311708  0.20852896     0.00800
Br350      Br  0.28834706  0.27966115  0.06513018    -0.03000
Br351      Br  0.36239154  0.31349165  0.06159493    -0.03900
Br352      Br  0.31683495  0.34143306  0.97739087     0.00100
C353        C  0.67516201  0.65334721  0.07625721     0.01500
C354        C  0.67170755  0.65270229  0.11686962     0.04300
C355        C  0.65316418  0.63863911  0.13267258    -0.11700
C356        C  0.63818083  0.62387261  0.10959627     0.23600
C357        C  0.64170099  0.62276482  0.07104830    -0.12300
C358        C  0.66050697  0.63554734  0.05622617     0.05100
C359        C  0.62083363  0.60662966  0.12785696     0.27500
C360        C  0.62117972  0.59120283  0.13740978    -0.13000
C361        C  0.60533137  0.57500161  0.15608679     0.05600
C362        C  0.58958922  0.57464771  0.16759077    -0.08900
C363        C  0.58865138  0.58951188  0.15597574     0.06400
C364        C  0.60422484  0.60541043  0.13550296    -0.13300
Br365      Br  0.62070687  0.60222965  0.03949603    -0.05400
Br366      Br  0.69175944  0.66767216  0.15422442     0.00200
Br367      Br  0.60509476  0.55308895  0.16537894     0.00700
Br368      Br  0.60323769  0.62578500  0.11883152    -0.03700
Br369      Br  0.66537376  0.62383139  0.01518536     0.00800
Br370      Br  0.64787782  0.63922155  0.18660303    -0.03000
Br371      Br  0.64378852  0.59258775  0.12639954    -0.03900
Br372      Br  0.56677602  0.58879255  0.16998444     0.00100
C373        C  0.71033202  0.69435009  0.81563407     0.01500
C374        C  0.69887912  0.69776433  0.83928838     0.04300
C375        C  0.69113990  0.68825963  0.87509001    -0.11700
C376        C  0.69219811  0.67352182  0.88591819     0.23600
C377        C  0.69736783  0.66588627  0.85807035    -0.12300
C378        C  0.70684099  0.67623681  0.82399478     0.05100
C379        C  0.69023861  0.66769744  0.92715741     0.27500
C380        C  0.70621777  0.67115727  0.94647804    -0.13000
C381        C  0.70494517  0.66684426  0.98580910     0.05600
C382        C  0.69124090  0.66645953  0.00983657    -0.08900
C383        C  0.67489134  0.66288950  0.98883999     0.06400
C384        C  0.67341326  0.66020857  0.94852331    -0.13300
Br385      Br  0.69141522  0.64101284  0.86812966    -0.05400
Br386      Br  0.68484496  0.70683079  0.82052022     0.00200
Br387      Br  0.71385469  0.65173886  0.99342772     0.00700
Br388      Br  0.64860218  0.64601171  0.92269864    -0.03700
Br389      Br  0.71292510  0.66338376  0.78919139     0.00800
Br390      Br  0.67643551  0.69350593  0.90726948    -0.03000
Br391      Br  0.73010655  0.68165537  0.91946821    -0.03900
Br392      Br  0.65447608  0.66257446  0.01160262     0.00100
C393        C  0.67197460  0.63402749  0.58499851     0.01500
C394        C  0.68720484  0.63571040  0.60435104     0.04300
C395        C  0.69940861  0.65141135  0.62918036    -0.11700
C396        C  0.69634692  0.66532944  0.63474692     0.23600
C397        C  0.68270224  0.66484841  0.61175655    -0.12300
C398        C  0.67067774  0.64929898  0.58658511     0.05100
C399        C  0.70353536  0.67712933  0.67043256     0.27500
C400        C  0.69237067  0.66907224  0.70364564    -0.13000
C401        C  0.69722165  0.68038091  0.73680165     0.05600
C402        C  0.71621076  0.69878212  0.74117144    -0.08900
C403        C  0.72546753  0.70766623  0.70475369     0.06400
C404        C  0.71936706  0.69666040  0.67023772    -0.13300
Br405      Br  0.67862257  0.68402463  0.61878018    -0.05400
Br406      Br  0.68983306  0.61537395  0.60139726     0.00200
Br407      Br  0.67451330  0.67101202  0.76746671     0.00700
Br408      Br  0.73301802  0.70783663  0.62218785    -0.03700
Br409      Br  0.65133322  0.64808748  0.55637062     0.00800
Br410      Br  0.71846847  0.65238282  0.65970518    -0.03000
Br411      Br  0.66932726  0.64230550  0.70266447    -0.03900
Br412      Br  0.74458678  0.73483286  0.69713604     0.00100
C413        C  0.34196146  0.32741042  0.89960973     0.01500
C414        C  0.35965961  0.34592695  0.90977473     0.04300
C415        C  0.37394701  0.35705792  0.88182571    -0.11700
C416        C  0.36919241  0.35338780  0.84281342     0.23600
C417        C  0.35122820  0.33660246  0.83133858    -0.12300
C418        C  0.33820768  0.32304798  0.85904351     0.05100
C419        C  0.38200577  0.36871098  0.81464565     0.27500
C420        C  0.38284151  0.38531824  0.81399068    -0.13000
C421        C  0.39506252  0.40013260  0.78792746     0.05600
C422        C  0.40592003  0.39807773  0.76132254    -0.08900
C423        C  0.40533804  0.38163744  0.76225557     0.06400
C424        C  0.39361825  0.36708510  0.78941526    -0.13300
Br425      Br  0.34447685  0.33241716  0.77728247    -0.05400
Br426      Br  0.36463549  0.36011084  0.95697613     0.00200
Br427      Br  0.39755475  0.42363502  0.79027045     0.00700
Br428      Br  0.39359888  0.34507486  0.79246694    -0.03700
Br429      Br  0.31556711  0.29868670  0.83923113     0.00800
Br430      Br  0.40011360  0.37850370  0.89655038    -0.03000
Br431      Br  0.36729838  0.38796112  0.84890196    -0.03900
Br432      Br  0.41988968  0.37864103  0.72531770     0.00100
C433        C  0.80280474  0.72057624  0.99866328     0.01500
C434        C  0.78569341  0.71941172  0.99302052     0.04300
C435        C  0.76962631  0.70833012  0.01702775    -0.11700
C436        C  0.76970028  0.69919168  0.04977534     0.23600
C437        C  0.78648828  0.70095071  0.05827854    -0.12300
C438        C  0.80280704  0.71100282  0.03287152     0.05100
C439        C  0.75220147  0.68943761  0.07547555     0.27500
C440        C  0.74785845  0.70084293  0.09261556    -0.13000
C441        C  0.72849849  0.69451066  0.09286063     0.05600
C442        C  0.71327249  0.67631104  0.07460802    -0.08900
C443        C  0.71748794  0.66289044  0.07592462     0.06400
C444        C  0.73702796  0.66963937  0.07265840    -0.13300
Br445      Br  0.78727914  0.69064229  0.10675983    -0.05400
Br446      Br  0.78212253  0.73117626  0.94985693     0.00200
Br447      Br  0.72453646  0.71015055  0.12457802     0.00700
Br448      Br  0.74303474  0.65214183  0.06268698    -0.03700
Br449      Br  0.82480407  0.71278317  0.05129989     0.00800
Br450      Br  0.74645655  0.70453083  0.00276067    -0.03000
Br451      Br  0.76916731  0.72569329  0.11236355    -0.03900
Br452      Br  0.69796740  0.63596707  0.08649919     0.00100
C453        C  0.74461366  0.70950046  0.79489224     0.01500
C454        C  0.75377948  0.70233884  0.77450887     0.04300
C455        C  0.76868164  0.70229789  0.79266758    -0.11700
C456        C  0.77805247  0.71327908  0.82601230     0.23600
C457        C  0.77244644  0.72389159  0.83971134    -0.12300
C458        C  0.75417452  0.71886633  0.83077421     0.05100
C459        C  0.79113065  0.71213333  0.85252037     0.27500
C460        C  0.78240927  0.69913229  0.88284808    -0.13000
C461        C  0.79119221  0.70412121  0.91992047     0.05600
C462        C  0.81048558  0.72274181  0.92638723    -0.08900
C463        C  0.82108371  0.73029801  0.89096676     0.06400
C464        C  0.81121199  0.72678323  0.85544206    -0.13300
Br465      Br  0.79368198  0.74972626  0.85247372    -0.05400
Br466      Br  0.74763938  0.69220180  0.72318941     0.00200
Br467      Br  0.77526117  0.68306558  0.95675001     0.00700
Br468      Br  0.82519598  0.74100265  0.80987012    -0.03700
Br469      Br  0.74398079  0.72555006  0.87044250     0.00800
Br470      Br  0.77778252  0.68885160  0.77090084    -0.03000
Br471      Br  0.75864672  0.67396575  0.87091635    -0.03900
Br472      Br  0.84730642  0.73847254  0.88634157     0.00100
C473        C  0.69686133  0.69161782  0.05423736     0.01500
C474        C  0.71310830  0.70656241  0.03242323     0.04300
C475        C  0.72351021  0.72544358  0.04443585    -0.11700
C476        C  0.71319381  0.73186164  0.05738261     0.23600
C477        C  0.69462711  0.71782016  0.07331633    -0.12300
C478        C  0.68687094  0.69780284  0.07432268     0.05100
C479        C  0.72155123  0.75242056  0.04871393     0.27500
C480        C  0.73943474  0.76725258  0.06453301    -0.13000
C481        C  0.75305325  0.78407018  0.04281452     0.05600
C482        C  0.74775199  0.78756308  0.00606095    -0.08900
C483        C  0.72701820  0.77521660  0.99926733     0.06400
C484        C  0.71469922  0.75701649  0.01760927    -0.13300
Br485      Br  0.68163914  0.72673461  0.09837847    -0.05400
Br486      Br  0.71028160  0.70786062  0.97826366     0.00200
Br487      Br  0.77585879  0.80272402  0.07175884     0.00700
Br488      Br  0.68920957  0.73764639  0.99693616    -0.03700
Br489      Br  0.66290175  0.68087273  0.10177540     0.00800
Br490      Br  0.75134337  0.74164444  0.04086584    -0.03000
Br491      Br  0.74482288  0.76334637  0.11627859    -0.03900
Br492      Br  0.71459987  0.78215812  0.96493851     0.00100
C493        C  0.75249587  0.79312535  0.93235883     0.01500
C494        C  0.75266346  0.80227509  0.89728835     0.04300
C495        C  0.75043345  0.79381470  0.86001585    -0.11700
C496        C  0.74272992  0.77430398  0.85678144     0.23600
C497        C  0.73686743  0.76406719  0.89091399    -0.12300
C498        C  0.74448166  0.77323489  0.92629961     0.05100
C499        C  0.74124233  0.76387740  0.82009131     0.27500
C500        C  0.72374814  0.75135774  0.79958688    -0.13000
C501        C  0.72041652  0.73564105  0.77802759     0.05600
C502        C  0.73278944  0.73026056  0.78363208    -0.08900
C503        C  0.75258565  0.74704682  0.78968479     0.06400
C504        C  0.75646176  0.76327778  0.80933872    -0.13300
Br505      Br  0.71507032  0.73780020  0.89098911    -0.05400
Br506      Br  0.74973140  0.82223391  0.89649400     0.00200
Br507      Br  0.70171477  0.72480961  0.73637058     0.00700
Br508      Br  0.78267206  0.78561435  0.81653446    -0.03700
Br509      Br  0.74511380  0.75696769  0.96200059     0.00800
Br510      Br  0.75598104  0.80812992  0.81334601    -0.03000
Br511      Br  0.70502289  0.75628954  0.80021998    -0.03900
Br512      Br  0.77488283  0.75043720  0.76632833     0.00100
C513        C  0.82400858  0.75445752  0.97375895     0.01500
C514        C  0.82004445  0.75977414  0.01011066     0.04300
C515        C  0.81386774  0.77160525  0.01205037    -0.11700
C516        C  0.81540556  0.78225456  0.98001062     0.23600
C517        C  0.82510605  0.78195663  0.94756464    -0.12300
C518        C  0.82911425  0.76830288  0.94396730     0.05100
C519        C  0.80581447  0.79240184  0.97855197     0.27500
C520        C  0.79275799  0.78757962  0.94880122    -0.13000
C521        C  0.78615234  0.79818608  0.94192715     0.05600
C522        C  0.78292820  0.80629994  0.97280190    -0.08900
C523        C  0.79888502  0.81514298  0.99940732     0.06400
C524        C  0.81038223  0.80815908  0.00211928    -0.13300
Br525      Br  0.83414327  0.80165711  0.90887633    -0.05400
Br526      Br  0.82560523  0.75368942  0.05915574     0.00200
Br527      Br  0.79531430  0.81162426  0.89413042     0.00700
Br528      Br  0.83313086  0.82131105  0.03407876    -0.03700
Br529      Br  0.84718564  0.77424080  0.90423530     0.00800
Br530      Br  0.80262184  0.77255305  0.05892987    -0.03000
Br531      Br  0.78305039  0.76708172  0.91484272    -0.03900
Br532      Br  0.80869355  0.83955377  0.02316758     0.00100
C533        C  0.28252315  0.26649751  0.19466032     0.01500
C534        C  0.27838683  0.27868653  0.17687733     0.04300
C535        C  0.26098704  0.27070661  0.15615849    -0.11700
C536        C  0.24738843  0.25068304  0.15104886     0.23600
C537        C  0.24898543  0.23891785  0.17566916    -0.12300
C538        C  0.26552882  0.24703996  0.19985587     0.05100
C539        C  0.23260495  0.24268210  0.11860852     0.27500
C540        C  0.21699491  0.24355153  0.11838652    -0.13000
C541        C  0.20627165  0.24002916  0.08374826     0.05600
C542        C  0.21318403  0.23863671  0.04651186    -0.08900
C543        C  0.22850845  0.23685033  0.04943365     0.06400
C544        C  0.23583890  0.23641059  0.08490612    -0.13300
Br545      Br  0.22742565  0.21194342  0.17938247    -0.05400
Br546      Br  0.29555176  0.30666324  0.17979146     0.00200
Br547      Br  0.18175234  0.23525830  0.09306770     0.00700
Br548      Br  0.24849225  0.22486348  0.08692899    -0.03700
Br549      Br  0.26005426  0.23499734  0.24923534     0.00800
Br550      Br  0.25558333  0.28753521  0.13588398    -0.03000
Br551      Br  0.20941767  0.24767085  0.16734107    -0.03900
Br552      Br  0.24361608  0.23906746  0.00643412     0.00100
C553        C  0.21982000  0.25531736  0.97718062     0.01500
C554        C  0.23819339  0.27289341  0.99019414     0.04300
C555        C  0.25009051  0.28857532  0.96482593    -0.11700
C556        C  0.24835286  0.28566882  0.92517644     0.23600
C557        C  0.22987975  0.27046768  0.91186688    -0.12300
C558        C  0.21501753  0.25730316  0.93839490     0.05100
C559        C  0.26664146  0.29330463  0.90264805     0.27500
C560        C  0.28218260  0.31311387  0.89833273    -0.13000
C561        C  0.30196221  0.31972558  0.90067366     0.05600
C562        C  0.30594203  0.30721097  0.91779446    -0.08900
C563        C  0.28891974  0.28823022  0.92327039     0.06400
C564        C  0.27225272  0.28150889  0.90237944    -0.13300
Br565      Br  0.22482256  0.26920914  0.85753151    -0.05400
Br566      Br  0.24886132  0.27938809  0.04163756     0.00200
Br567      Br  0.32150566  0.34563476  0.88274116     0.00700
Br568      Br  0.25448439  0.25505721  0.88807053    -0.03700
Br569      Br  0.18890776  0.24581886  0.92079948     0.00800
Br570      Br  0.26778508  0.31460377  0.98379723    -0.03000
Br571      Br  0.27594660  0.33023645  0.88657390    -0.03900
Br572      Br  0.28204963  0.28243331  0.97553845     0.00100
C573        C  0.30894312  0.25868490  0.19903936     0.01500
C574        C  0.32536359  0.26226153  0.17828400     0.04300
C575        C  0.32359144  0.24705613  0.15818019    -0.11700
C576        C  0.30524236  0.22922962  0.15331876     0.23600
C577        C  0.29097192  0.22480337  0.18057689    -0.12300
C578        C  0.29473226  0.23886100  0.20752749     0.05100
C579        C  0.30014149  0.21764834  0.11643990     0.27500
C580        C  0.29962285  0.22540296  0.08188736    -0.13000
C581        C  0.28732469  0.21328182  0.05223235     0.05600
C582        C  0.28199378  0.19431378  0.04698870    -0.08900
C583        C  0.28813847  0.18832302  0.07873543     0.06400
C584        C  0.29487213  0.19893598  0.11439875    -0.13300
Br585      Br  0.26672642  0.19959243  0.18422516    -0.05400
Br586      Br  0.35056588  0.28711369  0.17576382     0.00200
Br587      Br  0.27804234  0.22412733  0.02154361     0.00700
Br588      Br  0.30006864  0.18955115  0.15886141    -0.03700
Br589      Br  0.29385919  0.23082184  0.25960573     0.00800
Br590      Br  0.34591973  0.25012775  0.13729312    -0.03000
Br591      Br  0.31966865  0.25197182  0.06919021    -0.03900
Br592      Br  0.29172428  0.16886688  0.07509261     0.00100
C593        C  0.28541109  0.19920066  0.97398997     0.01500
C594        C  0.30575711  0.21467961  0.98111498     0.04300
C595        C  0.31560301  0.23240220  0.96110826    -0.11700
C596        C  0.30684520  0.23438461  0.92953852     0.23600
C597        C  0.28976078  0.21762866  0.91480420    -0.12300
C598        C  0.27918274  0.20014207  0.93608755     0.05100
C599        C  0.31267950  0.25390990  0.91848420     0.27500
C600        C  0.30134563  0.25876949  0.93273333    -0.13000
C601        C  0.31083798  0.27692610  0.94788155     0.05600
C602        C  0.32534671  0.29288223  0.92609421    -0.08900
C603        C  0.33653023  0.28862527  0.90328706     0.06400
C604        C  0.33065441  0.26919648  0.90235083    -0.13300
Br605      Br  0.28124888  0.21926221  0.86452437    -0.05400
Br606      Br  0.32175432  0.21162441  0.01410614     0.00200
Br607      Br  0.31489118  0.27577919  0.00113631     0.00700
Br608      Br  0.34579941  0.26287981  0.87680413    -0.03700
Br609      Br  0.26186411  0.17786007  0.90473143     0.00800
Br610      Br  0.34093573  0.25427090  0.97827251    -0.03000
Br611      Br  0.27456647  0.24040250  0.94287415    -0.03900
Br612      Br  0.36065755  0.30746586  0.87700541     0.00100
C613        C  0.19974714  0.21675052  0.98860214     0.01500
C614        C  0.19006158  0.19974809  0.01250290     0.04300
C615        C  0.19250815  0.18530828  0.00604824    -0.11700
C616        C  0.20809633  0.18935907  0.98390215     0.23600
C617        C  0.21413513  0.20304987  0.95447170    -0.12300
C618        C  0.20798094  0.21491248  0.95445728     0.05100
C619        C  0.21901496  0.18114712  0.99389047     0.27500
C620        C  0.22576119  0.18235846  0.03164921    -0.13000
C621        C  0.24155074  0.18168871  0.03815412     0.05600
C622        C  0.25001810  0.17803060  0.00664669    -0.08900
C623        C  0.23631536  0.16797651  0.97574238     0.06400
C624        C  0.22245518  0.17129789  0.96734503    -0.13300
Br625      Br  0.22972402  0.20511336  0.91239505    -0.05400
Br626      Br  0.17342541  0.19497090  0.05491153     0.00200
Br627      Br  0.24777718  0.18282865  0.09239994     0.00700
Br628      Br  0.20434943  0.15773464  0.92535437    -0.03700
Br629      Br  0.20282648  0.21938797  0.90378046     0.00800
Br630      Br  0.17239297  0.15885773  0.02003912    -0.03000
Br631      Br  0.21082052  0.18052071  0.07554054    -0.03900
Br632      Br  0.22928884  0.14348625  0.95752136     0.00100
C633        C  0.32423463  0.00706231  0.20173688     0.01500
C634        C  0.33502962  0.02130539  0.23153141     0.04300
C635        C  0.35036192  0.02299166  0.25105108    -0.11700
C636        C  0.35457146  0.01017519  0.24277224     0.23600
C637        C  0.34177880  0.99424694  0.21898525    -0.12300
C638        C  0.32531739  0.99143688  0.20377607     0.05100
C639        C  0.37022673  0.01123539  0.26337955     0.27500
C640        C  0.38995908  0.02500005  0.25337330    -0.13000
C641        C  0.40395353  0.02337480  0.26823777     0.05600
C642        C  0.39829262  0.00794480  0.29258185    -0.08900
C643        C  0.37894684  0.99511544  0.30488541     0.06400
C644        C  0.36505997  0.99711707  0.29123131    -0.13300
Br645      Br  0.34616917  0.97558277  0.20738678    -0.05400
Br646      Br  0.32704258  0.03542006  0.25482870     0.00200
Br647      Br  0.43103492  0.04250266  0.25607185     0.00700
Br648      Br  0.33895918  0.98075017  0.31118561    -0.03700
Br649      Br  0.30238440  0.96535621  0.21255202     0.00800
Br650      Br  0.36537743  0.04244154  0.29029172    -0.03000
Br651      Br  0.39834755  0.04654760  0.22078561    -0.03900
Br652      Br  0.37143136  0.97455442  0.33986373     0.00100
C653        C  0.32957051  0.99348771  0.85506866     0.01500
C654        C  0.33526169  0.98160476  0.86379879     0.04300
C655        C  0.35357244  0.98722602  0.85307510    -0.11700
C656        C  0.36354095  0.00011184  0.82266426     0.23600
C657        C  0.35559210  0.00844855  0.80562090    -0.12300
C658        C  0.33890815  0.00546435  0.82166679     0.05100
C659        C  0.38027372  0.00205034  0.80473596     0.27500
C660        C  0.39950756  0.01842887  0.81169304    -0.13000
C661        C  0.41513831  0.01985025  0.79500946     0.05600
C662        C  0.41164882  0.00472167  0.77202685    -0.08900
C663        C  0.39246448  0.98822597  0.76561481     0.06400
C664        C  0.37683929  0.98704877  0.78125959    -0.13300
Br665      Br  0.36787866  0.02402637  0.76007461    -0.05400
Br666      Br  0.31676386  0.95404800  0.86208960     0.00200
Br667      Br  0.44139500  0.04243172  0.80383969     0.00700
Br668      Br  0.35061288  0.96507084  0.76944370    -0.03700
Br669      Br  0.32829907  0.01575873  0.79236630     0.00800
Br670      Br  0.36371226  0.97519663  0.87731750    -0.03000
Br671      Br  0.40438287  0.03891789  0.84387747    -0.03900
Br672      Br  0.38755785  0.96737587  0.73449040     0.00100
C673        C  0.32621806  0.99672593  0.92776113     0.01500
C674        C  0.34361913  0.01402553  0.94159271     0.04300
C675        C  0.34522731  0.01858324  0.98097571    -0.11700
C676        C  0.33587645  0.00364264  0.00811176     0.23600
C677        C  0.32476295  0.98471340  0.99372818    -0.12300
C678        C  0.31863169  0.98090235  0.95458250     0.05100
C679        C  0.33348447  0.00737600  0.04919610     0.27500
C680        C  0.34721151  0.01383679  0.07888121    -0.13000
C681        C  0.34296946  0.01654779  0.11733675     0.05600
C682        C  0.32513639  0.01389472  0.12582868    -0.08900
C683        C  0.31508437  0.01226349  0.09217428     0.06400
C684        C  0.31699116  0.00564109  0.05787228    -0.13300
Br685      Br  0.31778478  0.96424593  0.02828719    -0.05400
Br686      Br  0.36726994  0.01900865  0.92444539     0.00200
Br687      Br  0.36323443  0.02589754  0.15362775     0.00700
Br688      Br  0.29486242  0.99135982  0.02627669    -0.03700
Br689      Br  0.30038630  0.95380317  0.94273798     0.00800
Br690      Br  0.36319785  0.04492607  0.99711222    -0.03000
Br691      Br  0.37057893  0.01684341  0.06710060    -0.03900
Br692      Br  0.30170953  0.02259662  0.08603254     0.00100
C693        C  0.68409207  0.97102025  0.15381228     0.01500
C694        C  0.69129860  0.98514676  0.18467182     0.04300
C695        C  0.67835802  0.98446675  0.21099311    -0.11700
C696        C  0.65827952  0.97102735  0.20642020     0.23600
C697        C  0.65096712  0.95631763  0.17924610    -0.12300
C698        C  0.66359999  0.95540752  0.15566892     0.05100
C699        C  0.64456286  0.97195210  0.23038978     0.27500
C700        C  0.63273716  0.95750027  0.25780373    -0.13000
C701        C  0.61699621  0.95582163  0.27442665     0.05600
C702        C  0.61416592  0.96988006  0.26691461    -0.08900
C703        C  0.62738038  0.98554259  0.24268088     0.06400
C704        C  0.64205286  0.98620511  0.22345955    -0.13300
Br705      Br  0.62309083  0.93817839  0.17181558    -0.05400
Br706      Br  0.71821199  0.00545499  0.19673602     0.00200
Br707      Br  0.59848132  0.93302894  0.30410595     0.00700
Br708      Br  0.65846019  0.00656564  0.18710961    -0.03700
Br709      Br  0.65118604  0.93175871  0.12787995     0.00800
Br710      Br  0.68772097  0.00185627  0.25473564    -0.03000
Br711      Br  0.63803672  0.93977246  0.27197493    -0.03900
Br712      Br  0.62615384  0.00672110  0.23706961     0.00100
C713        C  0.69512076  0.98235758  0.81219573     0.01500
C714        C  0.69533489  0.97787489  0.77239896     0.04300
C715        C  0.67865326  0.96980131  0.74874708    -0.11700
C716        C  0.66247632  0.96800801  0.76265440     0.23600
C717        C  0.66377246  0.97606521  0.79823890    -0.12300
C718        C  0.68101315  0.98576543  0.81937762     0.05100
C719        C  0.64547311  0.96130367  0.73790561     0.27500
C720        C  0.64460439  0.97508948  0.71932176    -0.13000
C721        C  0.62693595  0.96974938  0.70420662     0.05600
C722        C  0.61015599  0.95045808  0.70651654    -0.08900
C723        C  0.61130207  0.93645119  0.72300815     0.06400
C724        C  0.62889357  0.94191485  0.73901184    -0.13300
Br725      Br  0.64196797  0.97454586  0.81764603    -0.05400
Br726      Br  0.71868114  0.98767477  0.74452410     0.00200
Br727      Br  0.62570462  0.98900009  0.68100283     0.00700
Br728      Br  0.63009636  0.92319375  0.76483963    -0.03700
Br729      Br  0.68573863  0.00708979  0.84884778     0.00800
Br730      Br  0.67786426  0.96159441  0.69665371    -0.03000
Br731      Br  0.66747705  0.00159987  0.71688025    -0.03900
Br732      Br  0.58841126  0.91003772  0.72651173     0.00100
C733        C  0.70054138  0.98717442  0.88515484     0.01500
C734        C  0.70913582  0.00379071  0.91082527     0.04300
C735        C  0.70108715  0.00202422  0.94767724    -0.11700
C736        C  0.68441005  0.98448272  0.95969555     0.23600
C737        C  0.67285783  0.97053361  0.93204947    -0.12300
C738        C  0.68096349  0.97090527  0.89657129     0.05100
C739        C  0.68221517  0.97849009  0.00078251     0.27500
C740        C  0.68377471  0.96389879  0.00976157    -0.13000
C741        C  0.68108633  0.95734285  0.04753985     0.05600
C742        C  0.68441440  0.96988682  0.07876482    -0.08900
C743        C  0.67749159  0.98077547  0.06939757     0.06400
C744        C  0.67652455  0.98506833  0.03032314    -0.13300
Br745      Br  0.64649356  0.94960836  0.94657482    -0.05400
Br746      Br  0.73026312  0.02998637  0.90015199     0.00200
Br747      Br  0.66920237  0.93004738  0.05083200     0.00700
Br748      Br  0.66520482  0.99766532  0.01651918    -0.03700
Br749      Br  0.66366060  0.94778135  0.86646089     0.00800
Br750      Br  0.71122561  0.02397521  0.98150360    -0.03000
Br751      Br  0.69053757  0.95303285  0.97118004    -0.03900
Br752      Br  0.66259540  0.98394252  0.10498532     0.00100
C753        C  0.18587775  0.23641420  0.00623553     0.01500
C754        C  0.18791618  0.25382028  0.01453056     0.04300
C755        C  0.17202835  0.25427423  0.01229874    -0.11700
C756        C  0.15310340  0.23711111  0.01240108     0.23600
C757        C  0.15047459  0.21970422  0.00770234    -0.12300
C758        C  0.16628593  0.21980668  0.99773074     0.05100
C759        C  0.13636291  0.23770904  0.01767746     0.27500
C760        C  0.13485372  0.24612392  0.05067396    -0.13000
C761        C  0.12199308  0.25112711  0.05059952     0.05600
C762        C  0.10675154  0.24297266  0.02134668    -0.08900
C763        C  0.10513231  0.22829360  0.99971390     0.06400
C764        C  0.12200455  0.23069462  0.98949127    -0.13300
Br765      Br  0.12540338  0.19543264  0.01653473    -0.05400
Br766      Br  0.21070304  0.27725361  0.03509657     0.00200
Br767      Br  0.12864514  0.26987272  0.08996387     0.00700
Br768      Br  0.12300469  0.22083930  0.94089058    -0.03700
Br769      Br  0.15895464  0.19866918  0.96406792     0.00800
Br770      Br  0.17632181  0.27875475  0.01039709    -0.03000
Br771      Br  0.15044769  0.25066226  0.09539295    -0.03900
Br772      Br  0.08776496  0.20273663  0.02124409     0.00100
C773        C  0.71797032  0.99310004  0.11685191     0.01500
C774        C  0.73475519  0.99469634  0.12927105     0.04300
C775        C  0.75303635  0.00794982  0.11155816    -0.11700
C776        C  0.75589770  0.02166407  0.08507041     0.23600
C777        C  0.74169505  0.02463314  0.08469643    -0.12300
C778        C  0.72290006  0.01061628  0.10034610     0.05100
C779        C  0.77296027  0.03220814  0.05713535     0.27500
C780        C  0.79223618  0.04586786  0.06926873    -0.13000
C781        C  0.80798809  0.05336133  0.04299560     0.05600
C782        C  0.80465459  0.04757303  0.00277093    -0.08900
C783        C  0.78525737  0.03871150  0.99055657     0.06400
C784        C  0.76976516  0.02988691  0.01713858    -0.13300
Br785      Br  0.74900717  0.04891453  0.06516111    -0.05400
Br786      Br  0.73412574  0.98040273  0.17264140     0.00200
Br787      Br  0.83328524  0.07239049  0.06497117     0.00700
Br788      Br  0.74404292  0.01682010  0.99780117    -0.03700
Br789      Br  0.70812774  0.01973154  0.11108769     0.00800
Br790      Br  0.77351227  0.00627786  0.12314881    -0.03000
Br791      Br  0.79672183  0.05526181  0.12168987    -0.03900
Br792      Br  0.77998522  0.04611425  0.94350472     0.00100
C793        C  0.81436220  0.04425227  0.93039427     0.01500
C794        C  0.81946920  0.05808119  0.90085543     0.04300
C795        C  0.80620271  0.05257133  0.86939002    -0.11700
C796        C  0.78864440  0.03340051  0.86708311     0.23600
C797        C  0.78784499  0.01955350  0.89060003    -0.12300
C798        C  0.80353826  0.02553325  0.91415722     0.05100
C799        C  0.77221855  0.02699625  0.83914854     0.27500
C800        C  0.76088062  0.03361102  0.83961468    -0.13000
C801        C  0.74085132  0.02052925  0.82937340     0.05600
C802        C  0.73138421  0.00044652  0.83141066    -0.08900
C803        C  0.74410063  0.99588655  0.81788556     0.06400
C804        C  0.76441499  0.01043802  0.81733513    -0.13300
Br805      Br  0.77142987  0.99228131  0.88065392    -0.05400
Br806      Br  0.84640162  0.07826204  0.88985555     0.00200
Br807      Br  0.72889888  0.03031342  0.80367091     0.00700
Br808      Br  0.78213109  0.00813263  0.78928267    -0.03700
Br809      Br  0.81824721  0.02033982  0.88242296     0.00800
Br810      Br  0.81410516  0.06926928  0.82549998    -0.03000
Br811      Br  0.77222574  0.06009680  0.85061324    -0.03900
Br812      Br  0.73637728  0.97133992  0.79836010     0.00100
C813        C  0.97517046  0.17264334  0.99464561     0.01500
C814        C  0.98791863  0.18115542  0.96180061     0.04300
C815        C  0.00612493  0.18497723  0.96262269    -0.11700
C816        C  0.01134523  0.17921228  0.99459323     0.23600
C817        C  0.99615143  0.16455958  0.01781871    -0.12300
C818        C  0.97749279  0.16013441  0.01548978     0.05100
C819        C  0.03220706  0.19133411  0.00690730     0.27500
C820        C  0.04660031  0.19486401  0.98177593    -0.13000
C821        C  0.06485918  0.21339860  0.97984951     0.05600
C822        C  0.07037314  0.22812072  0.00843899    -0.08900
C823        C  0.05443859  0.22389571  0.03119038     0.06400
C824        C  0.03765276  0.20509699  0.03505135    -0.13300
Br825      Br  0.00087293  0.15009721  0.05054621    -0.05400
Br826      Br  0.97983124  0.18329817  0.91148751     0.00200
Br827      Br  0.07915327  0.21790039  0.93272499     0.00700
Br828      Br  0.02280412  0.19840241  0.08071059    -0.03700
Br829      Br  0.95550693  0.13507864  0.03320776     0.00800
Br830      Br  0.02293913  0.19673200  0.91824450    -0.03000
Br831      Br  0.04090297  0.17356878  0.95096873    -0.03900
Br832      Br  0.05013624  0.24269212  0.04390272     0.00100
C833        C  0.93809430  0.15535056  0.99780266     0.01500
C834        C  0.93223212  0.14318922  0.96409797     0.04300
C835        C  0.91242239  0.12829676  0.95627497    -0.11700
C836        C  0.89829178  0.12291646  0.98386877     0.23600
C837        C  0.90378339  0.13238401  0.01923862    -0.12300
C838        C  0.92346231  0.14654056  0.02783303     0.05100
C839        C  0.87872536  0.10414479  0.98069834     0.27500
C840        C  0.86258513  0.10341200  0.97231183    -0.13000
C841        C  0.84374119  0.08571875  0.97380847     0.05600
C842        C  0.84075511  0.06794658  0.98204840    -0.08900
C843        C  0.85733455  0.07019141  0.99808107     0.06400
C844        C  0.87609375  0.08754203  0.99352133    -0.13300
Br845      Br  0.88400645  0.12428582  0.05782384    -0.05400
Br846      Br  0.94893477  0.13988635  0.93530075     0.00200
Br847      Br  0.82288643  0.08741706  0.96585432     0.00700
Br848      Br  0.89861941  0.08904182  0.00732143    -0.03700
Br849      Br  0.92834423  0.14701564  0.08251980     0.00800
Br850      Br  0.90424171  0.11394245  0.90837842    -0.03000
Br851      Br  0.86677760  0.12703839  0.95793864    -0.03900
Br852      Br  0.85617084  0.05300455  0.03534888     0.00100
C853        C  0.74401166  0.89147801  0.99813269     0.01500
C854        C  0.73500737  0.87721300  0.96805052     0.04300
C855        C  0.74148627  0.86610699  0.95911165    -0.11700
C856        C  0.75510955  0.86685185  0.98254206     0.23600
C857        C  0.76171668  0.87837779  0.01559602    -0.12300
C858        C  0.75473980  0.88884732  0.02515259     0.05100
C859        C  0.75811998  0.85167705  0.97961418     0.27500
C860        C  0.74533064  0.83436196  0.99917233    -0.13000
C861        C  0.75027887  0.82202945  0.00600104     0.05600
C862        C  0.76422635  0.82253020  0.98210361    -0.08900
C863        C  0.77767460  0.84082711  0.96316089     0.06400
C864        C  0.77503061  0.85544950  0.96398342    -0.13300
Br865      Br  0.77881690  0.87790072  0.05060629    -0.05400
Br866      Br  0.71028498  0.86753562  0.94569102     0.00200
Br867      Br  0.74300906  0.81174902  0.05770336     0.00700
Br868      Br  0.79388184  0.88055151  0.94176112    -0.03700
Br869      Br  0.75297397  0.89076181  0.07987869     0.00800
Br870      Br  0.73089968  0.84881346  0.91551991    -0.03000
Br871      Br  0.72177373  0.82850286  0.02110769    -0.03900
Br872      Br  0.79937617  0.84709557  0.93356065     0.00100
C873        C  0.73683603  0.91118946  0.04319085     0.01500
C874        C  0.71816121  0.89614661  0.05867488     0.04300
C875        C  0.70791790  0.90081158  0.08189445    -0.11700
C876        C  0.71736745  0.91976911  0.09530279     0.23600
C877        C  0.73752692  0.93251253  0.09161162    -0.12300
C878        C  0.74748105  0.92769317  0.06897981     0.05100
C879        C  0.70732623  0.92873474  0.10243138     0.27500
C880        C  0.71084241  0.94173150  0.07452261    -0.13000
C881        C  0.71053339  0.95708004  0.08283485     0.05600
C882        C  0.70015082  0.95673121  0.11559289    -0.08900
C883        C  0.69515199  0.94224578  0.14419378     0.06400
C884        C  0.69985093  0.92924079  0.13800851    -0.13300
Br885      Br  0.75136017  0.95591612  0.12216757    -0.05400
Br886      Br  0.70700614  0.86915723  0.05309567     0.00200
Br887      Br  0.72471554  0.97758001  0.04581486     0.00700
Br888      Br  0.69731874  0.91285760  0.17856399    -0.03700
Br889      Br  0.76816673  0.93309557  0.10230790     0.00800
Br890      Br  0.68100516  0.88168082  0.09430655    -0.03000
Br891      Br  0.71686713  0.93850436  0.02383771    -0.03900
Br892      Br  0.68608108  0.94169941  0.19543216     0.00100
C893        C  0.73088640  0.91016745  0.96586209     0.01500
C894        C  0.73725255  0.91538637  0.92615880     0.04300
C895        C  0.73217890  0.92516844  0.90300512    -0.10500
C896        C  0.71728525  0.92607634  0.91419201     0.23600
C897        C  0.70611893  0.91488544  0.94572707    -0.12300
C898        C  0.71226979  0.90650910  0.97063235     0.05100
C899        C  0.71415353  0.93959438  0.89493020     0.27500
C900        C  0.72452848  0.95831268  0.90900123    -0.13000
C901        C  0.72245242  0.97174789  0.89288613     0.05600
C902        C  0.70961260  0.96730437  0.86096168    -0.08900
C903        C  0.69922392  0.94784420  0.84627222     0.06400
C904        C  0.70139273  0.93433630  0.86368203    -0.13300
Br905      Br  0.68113079  0.90963321  0.95181164    -0.05400
Br906      Br  0.74755402  0.90465224  0.89702305     0.00200
Br907      Br  0.73937976  0.99700434  0.91523273     0.00700
Br908      Br  0.68740952  0.90841519  0.84410302    -0.03700
Br909      Br  0.69009087  0.88371807  0.99408999     0.00800
Br910      Br  0.74426833  0.93592301  0.85372935    -0.03000
Br911      Br  0.74243297  0.96570763  0.95108737    -0.03900
Br912      Br  0.68432442  0.93917614  0.79927448     0.00100
C913        C  0.76651411  0.92838761  0.99345043     0.01500
C914        C  0.78114196  0.93914813  0.02176916     0.04300
C915        C  0.79276641  0.95957244  0.02037105    -0.11700
C916        C  0.79270468  0.96855587  0.98668066     0.23600
C917        C  0.78388671  0.95681120  0.95372992    -0.12300
C918        C  0.77442410  0.93690316  0.95722173     0.05100
C919        C  0.80244348  0.98976403  0.98623057     0.27500
C920        C  0.79417567  0.99665853  0.00762509    -0.13000
C921        C  0.80487719  0.01630024  0.01487558     0.05600
C922        C  0.81917340  0.02973565  0.98835948    -0.08900
C923        C  0.82911448  0.02339594  0.96928721     0.06400
C924        C  0.82099708  0.00346187  0.96997262    -0.13300
Br925      Br  0.78934628  0.96763156  0.90329181    -0.05400
Br926      Br  0.79502668  0.92974477  0.03935204     0.00200
Br927      Br  0.81141765  0.02154877  0.06836502     0.00700
Br928      Br  0.83521411  0.99495052  0.94933729    -0.03700
Br929      Br  0.79013121  0.93035414  0.93507788     0.00800
Br930      Br  0.81103426  0.97509399  0.06091561    -0.03000
Br931      Br  0.77022006  0.97958029  0.03464413    -0.03900
Br932      Br  0.85358141  0.04094577  0.94239939     0.00100
C933        C  0.02687944  0.37492019  0.27563253     0.01500
C934        C  0.01571595  0.35637396  0.29204753     0.04300
C935        C  0.01644187  0.34196333  0.27659033    -0.11700
C936        C  0.02831723  0.34598251  0.24452946     0.23600
C937        C  0.04010660  0.36478111  0.22915588    -0.12300
C938        C  0.03919627  0.37914189  0.24437075     0.05100
C939        C  0.02699932  0.32998161  0.22529641     0.27500
C940        C  0.04065631  0.32676211  0.23249474    -0.13000
C941        C  0.03902637  0.31130413  0.21440434     0.05600
C942        C  0.02484132  0.30011200  0.18454259    -0.08900
C943        C  0.00862541  0.30090775  0.18569202     0.06400
C944        C  0.01058262  0.31655282  0.20335594    -0.13300
Br945      Br  0.05800454  0.37117271  0.18817678    -0.05400
Br946      Br  0.99895799  0.35051562  0.33516906     0.00200
Br947      Br  0.05340277  0.30389215  0.23968100     0.00700
Br948      Br  0.99128080  0.32069031  0.19490207    -0.03700
Br949      Br  0.05532277  0.40480866  0.22322985     0.00800
Br950      Br  0.00114553  0.31661153  0.29932192    -0.03000
Br951      Br  0.06136075  0.34350131  0.26858632    -0.03900
Br952      Br  0.98191273  0.28023853  0.17269836     0.00100
C953        C  0.95964138  0.18374232  0.04594610     0.01500
C954        C  0.97216122  0.18719407  0.07775612     0.04300
C955        C  0.97816418  0.20211763  0.10438068    -0.11700
C956        C  0.96775927  0.20947087  0.10779458     0.23600
C957        C  0.95026811  0.20002180  0.08769570    -0.12300
C958        C  0.94753037  0.18955578  0.05395458     0.05100
C959        C  0.97714378  0.22912231  0.12445125     0.27500
C960        C  0.98246543  0.23369046  0.16363447    -0.13000
C961        C  0.99623447  0.25322998  0.17522702     0.05600
C962        C  0.00609214  0.26789442  0.14671629    -0.08900
C963        C  0.99460854  0.26321701  0.11208583     0.06400
C964        C  0.98155639  0.24405047  0.09991965    -0.13300
Br965      Br  0.93148635  0.20360277  0.10461888    -0.05400
Br966      Br  0.97542386  0.16897221  0.09815645     0.00200
Br967      Br  0.99706713  0.25968090  0.22910982     0.00700
Br968      Br  0.97045321  0.23892931  0.04870143    -0.03700
Br969      Br  0.92725950  0.18444699  0.02015454     0.00800
Br970      Br  0.00062041  0.21229381  0.13643111    -0.03000
Br971      Br  0.96995831  0.21332409  0.20115726    -0.03900
Br972      Br  0.99336677  0.28142112  0.08253599     0.00100
C973        C  0.04551573  0.28806184  0.16061754     0.01500
C974        C  0.06431100  0.30390319  0.14612471     0.04300
C975        C  0.07674652  0.30049199  0.12822029    -0.11700
C976        C  0.07443106  0.28318691  0.13627554     0.23600
C977        C  0.06239347  0.27325112  0.16803604    -0.12300
C978        C  0.04602818  0.27287141  0.17519132     0.05100
C979        C  0.08359592  0.27520863  0.11337461     0.27500
C980        C  0.07663513  0.25558653  0.11380034    -0.13000
C981        C  0.08363890  0.24893550  0.08640850     0.05600
C982        C  0.09246616  0.25932062  0.05088287    -0.08900
C983        C  0.10258068  0.27978076  0.05572858     0.06400
C984        C  0.10000494  0.28711105  0.08999241    -0.13300
Br985      Br  0.07397612  0.26919570  0.21040691    -0.05400
Br986      Br  0.07331028  0.33024078  0.14984080     0.00200
Br987      Br  0.07960010  0.22500613  0.09778316     0.00700
Br988      Br  0.12292256  0.30800949  0.11707434    -0.03700
Br989      Br  0.02834900  0.25297880  0.21032881     0.00800
Br990      Br  0.09610965  0.32031883  0.09399387    -0.03000
Br991      Br  0.05499484  0.23577367  0.14474452    -0.03900
Br992      Br  0.12528701  0.29901102  0.02716695     0.00100
C993        C  0.05502917  0.31742620  0.83794260     0.01500
C994        C  0.06975176  0.33778047  0.84033349     0.04300
C995        C  0.06608234  0.35058805  0.82838244    -0.11700
C996        C  0.05063276  0.34432342  0.80338332     0.23600
C997        C  0.03885113  0.32496153  0.79132601    -0.12300
C998        C  0.04082817  0.31148459  0.80842400     0.05100
C999        C  0.04878317  0.35873691  0.78573409     0.27500
C1000       C  0.03394917  0.35988049  0.79721599    -0.13000
C1001       C  0.03270563  0.37391643  0.78116571     0.05600
C1002       C  0.04691535  0.38765608  0.75492768    -0.08900
C1003       C  0.06196447  0.38662695  0.74392461     0.06400
C1004       C  0.06242248  0.37183538  0.75813488    -0.13300
Br1005     Br  0.01996071  0.31710338  0.75120657    -0.05400
Br1006     Br  0.09670520  0.34892220  0.83713566     0.00200
Br1007     Br  0.01068514  0.37328880  0.79338012     0.00700
Br1008     Br  0.08165686  0.36926757  0.73921339    -0.03700
Br1009     Br  0.02550036  0.28609055  0.78597516     0.00800
Br1010     Br  0.08319950  0.37714965  0.84500656    -0.03000
Br1011     Br  0.01520606  0.34213127  0.83489592    -0.03900
Br1012     Br  0.08293454  0.40608767  0.71131197     0.00100
C1013       C  0.05582550  0.31567797  0.91139978     0.01500
C1014       C  0.07244814  0.32520330  0.93709685     0.04300
C1015       C  0.06972953  0.32582514  0.97721858    -0.11700
C1016       C  0.05088977  0.31603204  0.99183496     0.23600
C1017       C  0.03610875  0.31098464  0.96573042    -0.12300
C1018       C  0.04069289  0.31543408  0.92669764     0.05100
C1019       C  0.04660778  0.31127773  0.03360211     0.27500
C1020       C  0.04511361  0.29564372  0.04831937    -0.13000
C1021       C  0.03549175  0.28695316  0.08246306     0.05600
C1022       C  0.03262006  0.29720662  0.11031689    -0.08900
C1023       C  0.03678665  0.31506615  0.09681397     0.06400
C1024       C  0.04262089  0.32118549  0.05807585    -0.13300
Br1025     Br  0.01072871  0.30139999  0.98287466    -0.05400
Br1026     Br  0.09895515  0.33777495  0.92192276     0.00200
Br1027     Br  0.02814546  0.26110975  0.08981345     0.00700
Br1028     Br  0.04697425  0.34424725  0.03840800    -0.03700
Br1029     Br  0.04074447  0.33657057  0.91180671     0.00800
Br1030     Br  0.09138576  0.34047840  0.01218337    -0.03000
Br1031     Br  0.06089848  0.28911990  0.02962385    -0.03900
Br1032     Br  0.03449874  0.33196003  0.12649850     0.00100
C1033       C  0.06819372  0.29991915  0.87363181     0.01500
C1034       C  0.08128245  0.30233629  0.84412333     0.04300
C1035       C  0.09372565  0.29687589  0.85191537    -0.11700
C1036       C  0.09619563  0.29285383  0.89005504     0.23600
C1037       C  0.08597214  0.29429712  0.91835702    -0.12300
C1038       C  0.06948717  0.29251493  0.90869037     0.05100
C1039       C  0.10139393  0.27972206  0.90095976     0.27500
C1040       C  0.08535721  0.26077931  0.90645123    -0.13000
C1041       C  0.08084180  0.25387159  0.94451414     0.05600
C1042       C  0.09610343  0.25917962  0.97205805    -0.08900
C1043       C  0.11512265  0.27377298  0.95614224     0.06400
C1044       C  0.11727786  0.28577343  0.92497430    -0.13300
Br1045     Br  0.09408943  0.29796804  0.97061454    -0.05400
Br1046     Br  0.07936640  0.30786483  0.79127626     0.00200
Br1047     Br  0.05395838  0.24167951  0.95379035     0.00700
Br1048     Br  0.14158203  0.31028885  0.91462253    -0.03700
Br1049     Br  0.04842232  0.27772225  0.94288264     0.00800
Br1050     Br  0.10710415  0.29448641  0.81123399    -0.03000
Br1051     Br  0.06716697  0.24737391  0.86471392    -0.03900
Br1052     Br  0.13844890  0.27784116  0.97248313     0.00100
C1053       C  0.03090205  0.28305468  0.87249257     0.01500
C1054       C  0.02763441  0.26521761  0.86344559     0.04300
C1055       C  0.01191646  0.24748043  0.87986095    -0.11700
C1056       C  0.99786210  0.24624753  0.90295445     0.23600
C1057       C  0.99794130  0.26235231  0.90269723    -0.12300
C1058       C  0.01338118  0.27999181  0.88499938     0.05100
C1059       C  0.98453270  0.22900570  0.92949412     0.27500
C1060       C  0.96649532  0.21167192  0.91873952    -0.13000
C1061       C  0.95618858  0.19511862  0.94398335     0.05600
C1062       C  0.96570341  0.19440013  0.97755725    -0.08900
C1063       C  0.98385042  0.21282467  0.98695867     0.06400
C1064       C  0.99093561  0.22977030  0.96656720    -0.13300
Br1065     Br  0.97602576  0.25955068  0.92486245    -0.05400
Br1066     Br  0.04196042  0.26321292  0.82400362     0.00200
Br1067     Br  0.93054833  0.17397223  0.92745393     0.00700
Br1068     Br  0.00867630  0.25440094  0.99109238    -0.03700
Br1069     Br  0.00661275  0.29608048  0.86769460     0.00800
Br1070     Br  0.00978374  0.22479201  0.86963887    -0.03000
Br1071     Br  0.95627479  0.21084931  0.86892669    -0.03900
Br1072     Br  0.00271889  0.21636384  0.02228113     0.00100
C1073       C  0.97255010  0.57899347  0.27931512     0.01500
C1074       C  0.95472139  0.57590967  0.27462430     0.04300
C1075       C  0.95431532  0.59082027  0.26096576    -0.11700
C1076       C  0.97166252  0.60866219  0.25008482     0.23600
C1077       C  0.98947380  0.61166411  0.25465288    -0.12300
C1078       C  0.98993702  0.59705001  0.26996442     0.05100
C1079       C  0.97109497  0.62370577  0.23137514     0.27500
C1080       C  0.96451491  0.62111102  0.19342507    -0.13000
C1081       C  0.96534937  0.63582240  0.17437246     0.05600
C1082       C  0.97653820  0.65514273  0.19066623    -0.08900
C1083       C  0.97943141  0.65599593  0.23146229     0.06400
C1084       C  0.97681007  0.64039303  0.25129669    -0.13300
Br1085     Br  0.01337516  0.63568532  0.23958246    -0.05400
Br1086     Br  0.93071228  0.55094843  0.28540907     0.00200
Br1087     Br  0.95077723  0.62767687  0.12587895     0.00700
Br1088     Br  0.98117720  0.64161687  0.30612392    -0.03700
Br1089     Br  0.01450416  0.60214445  0.28006991     0.00800
Br1090     Br  0.92997460  0.58686847  0.25724667    -0.03000
Br1091     Br  0.95613963  0.59789244  0.16591686    -0.03900
Br1092     Br  0.98708416  0.67782974  0.26226357     0.00100
C1093       C  0.00381155  0.60014426  0.74599040     0.01500
C1094       C  0.98867559  0.60164626  0.73943867     0.04300
C1095       C  0.98970557  0.61707512  0.75526432    -0.11700
C1096       C  0.00473114  0.63007048  0.78097640     0.23600
C1097       C  0.01978478  0.62864016  0.78782060    -0.12300
C1098       C  0.01969663  0.61418229  0.76937154     0.05100
C1099       C  0.00322101  0.64360918  0.80383312     0.27500
C1100       C  0.01373581  0.66307464  0.79394379    -0.13000
C1101       C  0.01140137  0.67547878  0.81504934     0.05600
C1102       C  0.99828808  0.66856083  0.84728670    -0.08900
C1103       C  0.98536054  0.64790689  0.85087039     0.06400
C1104       C  0.98919417  0.63616904  0.83263103    -0.13300
Br1105     Br  0.04021453  0.64617925  0.82347298    -0.05400
Br1106     Br  0.96521865  0.58162776  0.71270550     0.00200
Br1107     Br  0.02469272  0.70079520  0.79373114     0.00700
Br1108     Br  0.97522391  0.60944273  0.84761558    -0.03700
Br1109     Br  0.04183045  0.61430163  0.77526263     0.00800
Br1110     Br  0.97010445  0.62019811  0.74273500    -0.03000
Br1111     Br  0.03139891  0.67248826  0.75080425    -0.03900
Br1112     Br  0.95995452  0.63373788  0.87272529     0.00100
C1113       C  0.99384873  0.67084951  0.92064702     0.01500
C1114       C  0.00701185  0.66858645  0.93946894     0.04300
C1115       C  0.00716682  0.66747883  0.97997968    -0.11700
C1116       C  0.99044139  0.66114289  0.00086811     0.23600
C1117       C  0.97401750  0.65518832  0.98001176    -0.12300
C1118       C  0.97584445  0.66219272  0.94231906     0.05100
C1119       C  0.99040434  0.66324858  0.04366013     0.27500
C1120       C  0.99244741  0.65252719  0.07065724    -0.13000
C1121       C  0.99321612  0.65657100  0.11100089     0.05600
C1122       C  0.98947239  0.66995451  0.12363002    -0.08900
C1123       C  0.99561557  0.68375491  0.09583003     0.06400
C1124       C  0.98957091  0.67758909  0.05868988    -0.13300
Br1125     Br  0.94923219  0.63630273  0.00365137    -0.05400
Br1126     Br  0.01621523  0.65599501  0.91440029     0.00200
Br1127     Br  0.00406891  0.64733151  0.14277697     0.00700
Br1128     Br  0.98201372  0.69047239  0.03132204    -0.03700
Br1129     Br  0.95242694  0.65864508  0.92636577     0.00800
Br1130     Br  0.02968490  0.67283311  0.00535554    -0.03000
Br1131     Br  0.99177097  0.63122185  0.05313868    -0.03900
Br1132     Br  0.02334532  0.70115811  0.09649595     0.00100
C1133       C  0.92406563  0.70179398  0.03094111     0.01500
C1134       C  0.92153957  0.68403412  0.02681242     0.04300
C1135       C  0.92867651  0.67822434  0.05533820    -0.11700
C1136       C  0.93105037  0.68453555  0.09386048     0.23600
C1137       C  0.92490547  0.69585657  0.10123841    -0.12300
C1138       C  0.92461593  0.70668900  0.07112366     0.05100
C1139       C  0.93968130  0.67946966  0.12532794     0.27500
C1140       C  0.93388695  0.66056487  0.13044151    -0.13000
C1141       C  0.94565095  0.65756259  0.15265187     0.05600
C1142       C  0.96479155  0.67357218  0.16308200    -0.08900
C1143       C  0.96420178  0.68887829  0.17520443     0.06400
C1144       C  0.95336925  0.69307298  0.15300493    -0.13300
Br1145     Br  0.91279127  0.69306069  0.15009899    -0.05400
Br1146     Br  0.90095134  0.66225039  0.99811388     0.00200
Br1147     Br  0.93123297  0.63839138  0.19250158     0.00700
Br1148     Br  0.96008928  0.71850371  0.15846284    -0.03700
Br1149     Br  0.92464220  0.72754633  0.08867053     0.00800
Br1150     Br  0.93349407  0.66046204  0.03971408    -0.03000
Br1151     Br  0.90737731  0.63903094  0.11890880    -0.03900
Br1152     Br  0.97539428  0.70298746  0.22261464     0.00100
C1153       C  0.98505197  0.68769321  0.87491631     0.01500
C1154       C  0.98660546  0.70061180  0.90284646     0.04300
C1155       C  0.97703028  0.70866946  0.89895227    -0.11700
C1156       C  0.95974914  0.69896483  0.87796435     0.23600
C1157       C  0.95722917  0.68615751  0.84900125    -0.12300
C1158       C  0.97061546  0.68163377  0.84544460     0.05100
C1159       C  0.94490599  0.70201473  0.88972934     0.27500
C1160       C  0.92749948  0.68793435  0.90944930    -0.13000
C1161       C  0.91959303  0.69380903  0.93622997     0.05600
C1162       C  0.93187481  0.71234577  0.95314338    -0.08900
C1163       C  0.94684982  0.72671217  0.92682082     0.06400
C1164       C  0.95082576  0.72082395  0.89260249    -0.13300
Br1165     Br  0.93729714  0.67739533  0.81105406    -0.05400
Br1166     Br  0.00142613  0.70810671  0.94872015     0.00200
Br1167     Br  0.89222103  0.68160489  0.93271922     0.00700
Br1168     Br  0.96494911  0.73806989  0.84993642    -0.03700
Br1169     Br  0.96820785  0.66766326  0.80003962     0.00800
Br1170     Br  0.99097140  0.73512954  0.91590613    -0.03000
Br1171     Br  0.91377511  0.66099851  0.89946428    -0.03900
Br1172     Br  0.96151733  0.75439005  0.93265854     0.00100
C1173       C  0.91318182  0.72083246  0.99433143     0.01500
C1174       C  0.91362543  0.73327808  0.96614902     0.04300
C1175       C  0.90356276  0.74111123  0.97211693    -0.11700
C1176       C  0.88829741  0.73272391  0.99852591     0.23600
C1177       C  0.88518534  0.71821309  0.02264278    -0.12300
C1178       C  0.89606979  0.71110551  0.01829624     0.05100
C1179       C  0.87185778  0.73390751  0.99127331     0.27500
C1180       C  0.87234678  0.74954594  0.00290110    -0.13000
C1181       C  0.85728002  0.75087554  0.99219586     0.05600
C1182       C  0.83891532  0.73439374  0.97620358    -0.08900
C1183       C  0.83894539  0.71817693  0.96698880     0.06400
C1184       C  0.85565432  0.71901319  0.97082884    -0.13300
Br1185     Br  0.86458288  0.70705288  0.06017585    -0.05400
Br1186     Br  0.91486521  0.73019610  0.91139608     0.00200
Br1187     Br  0.86499529  0.77663850  0.99822245     0.00700
Br1188     Br  0.85668877  0.69939512  0.94741651    -0.03700
Br1189     Br  0.88234120  0.68485995  0.03601915     0.00800
Br1190     Br  0.90864654  0.76154516  0.93923241    -0.03000
Br1191     Br  0.89424610  0.76926326  0.03375753    -0.03900
Br1192     Br  0.81688366  0.69314002  0.95122245     0.00100
C1193       C  0.27035629  0.16409280  0.00082601     0.01500
C1194       C  0.25623849  0.14637883  0.02153329     0.04300
C1195       C  0.25528937  0.12963198  0.01769815    -0.11700
C1196       C  0.26962670  0.13026199  0.99787705     0.23600
C1197       C  0.28389078  0.14709596  0.97831858    -0.12300
C1198       C  0.28343294  0.16304325  0.97645026     0.05100
C1199       C  0.27045028  0.11354788  0.99841506     0.27500
C1200       C  0.27993923  0.11183663  0.02843992    -0.13000
C1201       C  0.28558494  0.09981669  0.02498433     0.05600
C1202       C  0.27731625  0.08479929  0.99587352    -0.08900
C1203       C  0.26722756  0.08682358  0.96551337     0.06400
C1204       C  0.26447589  0.10129519  0.96658932    -0.13300
Br1205     Br  0.30465873  0.14795951  0.95439614    -0.05400
Br1206     Br  0.23791415  0.14337510  0.05780747     0.00200
Br1207     Br  0.30823942  0.10945383  0.05614610     0.00700
Br1208     Br  0.25134776  0.10404908  0.92526779    -0.03700
Br1209     Br  0.30088179  0.18094999  0.93679070     0.00800
Br1210     Br  0.23458382  0.10536612  0.04094028    -0.03000
Br1211     Br  0.28554858  0.12644488  0.07514349    -0.03900
Br1212     Br  0.25652474  0.07079142  0.92079444     0.00100
C1213       C  0.28586451  0.06700376  0.04234155     0.01500
C1214       C  0.27670977  0.06366292  0.07923951     0.04300
C1215       C  0.28435595  0.06140175  0.11330451    -0.11700
C1216       C  0.29960205  0.05997982  0.11143424     0.23600
C1217       C  0.31109364  0.06717659  0.07776929    -0.12300
C1218       C  0.30551032  0.07282503  0.04599354     0.05100
C1219       C  0.30290990  0.05036110  0.14332693     0.27500
C1220       C  0.32163244  0.05811804  0.15706148    -0.13000
C1221       C  0.32620834  0.04549168  0.16687421     0.05600
C1222       C  0.31092949  0.02527844  0.17272964    -0.08900
C1223       C  0.29235551  0.02111216  0.17738995     0.06400
C1224       C  0.28789108  0.03142133  0.15570232    -0.13300
Br1225     Br  0.33491387  0.06981992  0.07288890    -0.05400
Br1226     Br  0.25690478  0.06649180  0.08833851     0.00200
Br1227     Br  0.35322694  0.05673369  0.16919169     0.00700
Br1228     Br  0.26098569  0.01845628  0.14545624    -0.03700
Br1229     Br  0.32704214  0.09142252  0.01216368     0.00800
Br1230     Br  0.27638033  0.06336873  0.16403045    -0.03000
Br1231     Br  0.34030662  0.08564707  0.16333081    -0.03900
Br1232     Br  0.28346866  0.02091415  0.22826505     0.00100
C1233       C  0.31928036  0.01523079  0.87852212     0.01500
C1234       C  0.33609870  0.03416374  0.88910187     0.04300
C1235       C  0.33417740  0.04819417  0.90287603    -0.11700
C1236       C  0.31676895  0.04563184  0.89756757     0.23600
C1237       C  0.30335188  0.03101802  0.87183339    -0.12300
C1238       C  0.30401171  0.01554559  0.86307620     0.05100
C1239       C  0.31073358  0.05486903  0.92408793     0.27500
C1240       C  0.30391270  0.04674097  0.96031999    -0.13000
C1241       C  0.29077692  0.04816794  0.97964652     0.05600
C1242       C  0.28956655  0.06365749  0.97151238    -0.08900
C1243       C  0.30108797  0.07567475  0.93913566     0.06400
C1244       C  0.31001166  0.07006062  0.91399183    -0.13300
Br1245     Br  0.28517722  0.03315246  0.84604594    -0.05400
Br1246     Br  0.36134796  0.04463074  0.86920141     0.00200
Br1247     Br  0.27525083  0.02815874  0.01785671     0.00700
Br1248     Br  0.32313979  0.08428084  0.86781193    -0.03700
Br1249     Br  0.28396088  0.99634426  0.82852366     0.00800
Br1250     Br  0.35582455  0.07188913  0.92565920    -0.03000
Br1251     Br  0.31633904  0.03800480  0.98822992    -0.03900
Br1252     Br  0.30741849  0.10062486  0.92995088     0.00100
C1253       C  0.29324246  0.98778095  0.15892156     0.01500
C1254       C  0.29076763  0.97409728  0.13126454     0.04300
C1255       C  0.27232800  0.95968039  0.11538018    -0.11700
C1256       C  0.25599597  0.95809073  0.12702757     0.23600
C1257       C  0.25758454  0.96782238  0.16100142    -0.12300
C1258       C  0.27588004  0.98072152  0.17924830     0.05100
C1259       C  0.23903698  0.94901147  0.09969339     0.27500
C1260       C  0.24090291  0.96011298  0.06903918    -0.13000
C1261       C  0.22861484  0.95213765  0.03705988     0.05600
C1262       C  0.20994723  0.93344567  0.03910165    -0.08900
C1263       C  0.20749283  0.92207076  0.07246008     0.06400
C1264       C  0.22258048  0.92964334  0.10074539    -0.13300
Br1265     Br  0.23493072  0.96338371  0.18298557    -0.05400
Br1266     Br  0.31091867  0.97167709  0.11964937     0.00200
Br1267     Br  0.23737551  0.96998876  0.99455822     0.00700
Br1268     Br  0.22045536  0.91430075  0.14331855    -0.03700
Br1269     Br  0.27609575  0.98079670  0.23464708     0.00800
Br1270     Br  0.26891809  0.94145589  0.07813823    -0.03000
Br1271     Br  0.25729530  0.98722774  0.07577307    -0.03900
Br1272     Br  0.18445961  0.89685658  0.08448439     0.00100
C1273       C  0.20451896  0.92842620  0.96795108     0.01500
C1274       C  0.20968816  0.93989365  0.93332698     0.04300
C1275       C  0.22498454  0.94410330  0.90897838    -0.11700
C1276       C  0.23361526  0.93498628  0.91382344     0.23600
C1277       C  0.22474319  0.91949652  0.93944116    -0.12300
C1278       C  0.21080609  0.91637589  0.96659547     0.05100
C1279       C  0.25480557  0.94608150  0.90403430     0.27500
C1280       C  0.26274334  0.94763712  0.86738971    -0.13000
C1281       C  0.28305035  0.96258194  0.85991608     0.05600
C1282       C  0.29472937  0.97801389  0.88762781    -0.08900
C1283       C  0.28430184  0.97658090  0.92087726     0.06400
C1284       C  0.26722610  0.95913559  0.93173066    -0.13300
Br1285     Br  0.23403941  0.90428142  0.93975157    -0.05400
Br1286     Br  0.19407684  0.94567523  0.90874722     0.00200
Br1287     Br  0.29196226  0.96348312  0.80835640     0.00700
Br1288     Br  0.26169788  0.95188555  0.98474621    -0.03700
Br1289     Br  0.20073363  0.89471718  0.00008422     0.00800
Br1290     Br  0.23488957  0.96300665  0.86835756    -0.03000
Br1291     Br  0.24581121  0.92892601  0.82885404    -0.03900
Br1292     Br  0.28594421  0.99766474  0.94105807     0.00100
C1293       C  0.19309791  0.94671936  0.01251914     0.01500
C1294       C  0.18391109  0.95150661  0.98676555     0.04300
C1295       C  0.19156636  0.97121434  0.98230970    -0.11700
C1296       C  0.20637564  0.98550251  0.00725292     0.23600
C1297       C  0.20897852  0.97902485  0.04159329    -0.12300
C1298       C  0.20101834  0.95948332  0.04578987     0.05100
C1299       C  0.22030477  0.00667903  0.99715586     0.27500
C1300       C  0.23352815  0.01262768  0.96712084    -0.13000
C1301       C  0.24945281  0.03223500  0.96276237     0.05600
C1302       C  0.25456057  0.04639592  0.99254543    -0.08900
C1303       C  0.23764290  0.04103310  0.01322598     0.06400
C1304       C  0.22146704  0.02124032  0.01789679    -0.13300
Br1305     Br  0.22371656  0.99690950  0.08285056    -0.05400
Br1306     Br  0.15863347  0.93159652  0.96534105     0.00200
Br1307     Br  0.26082782  0.03774998  0.91194770     0.00700
Br1308     Br  0.19958808  0.01410902  0.04888759    -0.03700
Br1309     Br  0.19961490  0.95131336  0.09869703     0.00800
Br1310     Br  0.18152712  0.97865076  0.94350618    -0.03000
Br1311     Br  0.23003195  0.99391882  0.93098321    -0.03900
Br1312     Br  0.23072073  0.05824026  0.01531608     0.00100
C1313       C  0.00302861  0.69468908  0.17652558     0.01500
C1314       C  0.02049808  0.69876838  0.19362217     0.04300
C1315       C  0.03857468  0.71797601  0.19474683    -0.11700
C1316       C  0.04009467  0.73381619  0.18008339     0.23600
C1317       C  0.02257413  0.73044538  0.17291326    -0.12300
C1318       C  0.00621254  0.71212155  0.16261624     0.05100
C1319       C  0.05830429  0.75137806  0.16101184     0.27500
C1320       C  0.06508177  0.77043374  0.16836869    -0.13000
C1321       C  0.07388884  0.78451301  0.13837148     0.05600
C1322       C  0.07327785  0.77871575  0.09965700    -0.08900
C1323       C  0.07480809  0.76302574  0.09853297     0.06400
C1324       C  0.06679060  0.74925428  0.12883174    -0.13300
Br1325     Br  0.01924562  0.74970178  0.18348620    -0.05400
Br1326     Br  0.02256825  0.67944979  0.21165876     0.00200
Br1327     Br  0.09020626  0.81150555  0.15260534     0.00700
Br1328     Br  0.06923487  0.72873811  0.12723131    -0.03700
Br1329     Br  0.99408204  0.71516598  0.11936944     0.00800
Br1330     Br  0.06082527  0.72375665  0.22248867    -0.03000
Br1331     Br  0.06518211  0.77762956  0.22080310    -0.03900
Br1332     Br  0.08829651  0.75955755  0.05865584     0.00100
C1333       C  0.06892102  0.77558495  0.02554372     0.01500
C1334       C  0.05232152  0.75553204  0.02619070     0.04300
C1335       C  0.04894543  0.74257749  0.99709260    -0.11700
C1336       C  0.05860157  0.74898931  0.96198365     0.23600
C1337       C  0.07521704  0.76822099  0.95984862    -0.12300
C1338       C  0.08104950  0.78119087  0.99158861     0.05100
C1339       C  0.04992057  0.73553558  0.92748703     0.27500
C1340       C  0.05045723  0.71984410  0.92354538    -0.13000
C1341       C  0.03745075  0.70443871  0.89809911     0.05600
C1342       C  0.02133025  0.70274783  0.88216961    -0.08900
C1343       C  0.02594721  0.72149122  0.87510847     0.06400
C1344       C  0.03944922  0.73736955  0.89939840    -0.13300
Br1345     Br  0.09064687  0.77592471  0.91355254    -0.05400
Br1346     Br  0.03425567  0.74406202  0.06847853     0.00200
Br1347     Br  0.04884281  0.69474735  0.86958399     0.00700
Br1348     Br  0.04193650  0.76084484  0.89739372    -0.03700
Br1349     Br  0.10552330  0.80579089  0.98402408     0.00800
Br1350     Br  0.03389670  0.71570177  0.00808219    -0.03000
Br1351     Br  0.07017113  0.72038494  0.95039116    -0.03900
Br1352     Br  0.01418346  0.72662582  0.83461796     0.00100
C1353       C  0.05206347  0.78719461  0.05796118     0.01500
C1354       C  0.04651570  0.79027185  0.02094369     0.04300
C1355       C  0.02747962  0.78432276  0.01369266    -0.11700
C1356       C  0.01308063  0.77491793  0.04202899     0.23600
C1357       C  0.01867134  0.77436174  0.07937458    -0.12300
C1358       C  0.03810744  0.78193412  0.08810759     0.05100
C1359       C  0.99187515  0.76171326  0.03080447     0.27500
C1360       C  0.97911950  0.76648156  0.03410162    -0.13000
C1361       C  0.95911156  0.75308082  0.02317082     0.05600
C1362       C  0.95122610  0.73394470  0.00944380    -0.08900
C1363       C  0.96509046  0.72991650  0.00695692     0.06400
C1364       C  0.98465424  0.74362071  0.01685120    -0.13300
Br1365     Br  0.99917351  0.76390116  0.11901404    -0.05400
Br1366     Br  0.06443074  0.80387833  0.97881702     0.00200
Br1367     Br  0.94463146  0.76313924  0.02475018     0.00700
Br1368     Br  0.00264145  0.73806721  0.00991404    -0.03700
Br1369     Br  0.04501690  0.79240940  0.13916588     0.00800
Br1370     Br  0.02013477  0.78757610  0.96359399    -0.03000
Br1371     Br  0.98974379  0.79194684  0.05267734    -0.03900
Br1372     Br  0.95927620  0.70620384  0.98686827     0.00100
C1373       C  0.17259293  0.90909333  0.01078296     0.01500
C1374       C  0.16419846  0.89361299  0.98306571     0.04300
C1375       C  0.14912919  0.87438920  0.99362106    -0.11700
C1376       C  0.13974560  0.87025627  0.02912176     0.23600
C1377       C  0.14434473  0.88569978  0.05224463    -0.12300
C1378       C  0.15945802  0.90495598  0.04168410     0.05100
C1379       C  0.12310521  0.84998837  0.03961867     0.27500
C1380       C  0.10415740  0.84399918  0.03676234    -0.13000
C1381       C  0.08872415  0.82640443  0.05292343     0.05600
C1382       C  0.09036705  0.81121404  0.06037775    -0.08900
C1383       C  0.11020474  0.81826338  0.06635347     0.06400
C1384       C  0.12615663  0.83742327  0.05615713    -0.13300
Br1385     Br  0.13025128  0.88033449  0.09981634    -0.05400
Br1386     Br  0.16809107  0.89736794  0.92802292     0.00200
Br1387     Br  0.06956739  0.82824343  0.07534873     0.00700
Br1388     Br  0.15257756  0.84642518  0.06230518    -0.03700
Br1389     Br  0.15647025  0.92329268  0.06335252     0.00800
Br1390     Br  0.14068126  0.85355050  0.95837584    -0.03000
Br1391     Br  0.09928383  0.86044779  0.01182254    -0.03900
Br1392     Br  0.11755860  0.80365828  0.08962249     0.00100
loop_ 
_geom_bond_atom_site_label_1 
_geom_bond_atom_site_label_2 
_geom_bond_distance 
_geom_bond_site_symmetry_2 
_ccdc_geom_bond_type 
C1         C1322   1.635       .  S
C1         C1333   1.619       .  S
C1         C1353   1.637       .  S
C1         C1382   1.617       .  S
C2         C1262   1.616       .  S
C2         C1273   1.642   1_554  S
C2         C1293   1.626       .  S
C2         C1373   1.614       .  S
C3         C1202   1.622   1_554  S
C3         C1213   1.638       .  S
C3         C1242   1.602   1_554  S
C3         C1302   1.647   1_554  S
C4         C1133   1.636   1_556  S
C4         C1162   1.611       .  S
C4         C1173   1.631       .  S
C4         C1362   1.610   1_556  S
C5         C1102   1.605       .  S
C5         C1113   1.628       .  S
C5         C1153   1.599       .  S
C5         C1342   1.640   1_655  S
C6         C1082   1.595       .  S
C6         C1122   1.607       .  S
C6         C1142   1.641       .  S
C6         C1313   1.637   1_655  S
C7          C993   1.594       .  S
C7         C1013   1.622       .  S
C7         C1033   1.605       .  S
C7         C1053   1.641       .  S
C8          C942   1.607       .  S
C8          C962   1.602       .  S
C8          C973   1.646       .  S
C8         C1022   1.597       .  S
N9           N10   1.323       .  A
N9           C13   1.352       .  A
N9          Cu17   2.105       .  S
N10          C11   1.341       .  A
N10         Cu16   2.068       .  S
C11          C12   1.379       .  A
C11          H14   1.082       .  S
C12          C13   1.391       .  A
C12          C36   1.472   1_455  S
C13          H15   1.082   1_455  S
Cu16         N19   2.067       .  S
Cu17         N27   2.104       .  S
Cu18         N20   2.054       .  S
Cu18         N26   2.055       .  S
N19          N20   1.319       .  A
N19          C23   1.345       .  A
N20          C21   1.342       .  A
C21          C22   1.382       .  A
C21          H24   1.082       .  S
C22          C23   1.384       .  A
C22          C70   1.468       .  S
C23          H25   1.082       .  S
N26          N27   1.324       .  A
N26          C30   1.340       .  A
N27          C28   1.351       .  A
C28          C29   1.389       .  A
C28          H31   1.082       .  S
C29          C30   1.375       .  A
C29         C933   1.477       .  S
C30          H32   1.082       .  S
N33          N34   1.324       .  A
N33          C37   1.353       .  A
N33         Cu41   2.113       .  S
N34          C35   1.340       .  A
N34         Cu40   2.066       .  S
C35          C36   1.378       .  A
C35          H38   1.082       .  S
C36          C37   1.392       .  A
C37          H39   1.082   1_655  S
Cu40         N43   2.067       .  S
Cu41         N51   2.112       .  S
Cu42         N44   2.055       .  S
Cu42         N50   2.055       .  S
N43          N44   1.318       .  A
N43          C47   1.348       .  A
N44          C45   1.340       .  A
C45          C46   1.382       .  A
C45          H48   1.081       .  S
C46          C47   1.386       .  A
C46          C94   1.471       .  S
C47          H49   1.082       .  S
N50          N51   1.323       .  A
N50          C54   1.341       .  A
N51          C52   1.353       .  A
C52          C53   1.392       .  A
C52          H55   1.082       .  S
C53          C54   1.377       .  A
C53        C1073   1.484       .  S
C54          H56   1.082       .  S
N57          N58   1.324       .  A
N57          C61   1.354       .  A
N57         Cu65   2.117       .  S
N58          C59   1.341       .  A
N58         Cu64   2.066       .  S
C59          C60   1.378       .  A
C59          H62   1.082       .  S
C60          C61   1.392       .  A
C60          C84   1.474       .  S
C61          H63   1.082       .  S
Cu64         N67   2.066       .  S
Cu65         N75   2.116       .  S
Cu66         N68   2.054       .  S
Cu66         N74   2.054       .  S
N67          N68   1.319       .  A
N67          C71   1.346       .  A
N68          C69   1.341       .  A
C69          C70   1.381       .  A
C69          H72   1.082       .  S
C70          C71   1.385       .  A
C71          H73   1.082       .  S
N74          N75   1.322       .  A
N74          C78   1.340       .  A
N75          C76   1.353       .  A
C76          C77   1.397       .  A
C76          H79   1.082       .  S
C77          C78   1.380       .  A
C77        C1002   1.495       .  S
C78          H80   1.082       .  S
N81          N82   1.324   1_455  A
N81          C85   1.352       .  A
N81         Cu89   2.107       .  S
N82          C83   1.343       .  A
N82         Cu88   2.076       .  S
C83          C84   1.382   1_655  A
C83          H86   1.082       .  S
C84          C85   1.390       .  A
C85          H87   1.082       .  S
Cu88         N91   2.075       .  S
Cu89         N99   2.106       .  S
Cu90         N92   2.061       .  S
Cu90         N98   2.061       .  S
N91          N92   1.320       .  A
N91          C95   1.348       .  A
N92          C93   1.340       .  A
C93          C94   1.381       .  A
C93          H96   1.081       .  S
C94          C95   1.386       .  A
C95          H97   1.082       .  S
N98          N99   1.321   1_655  A
N98         C102   1.343       .  A
N99         C100   1.351       .  A
C100        C101   1.395       .  A
C100        H103   1.082       .  S
C101        C102   1.384   1_455  A
C101       C1093   1.497       .  S
C102        H104   1.082       .  S
C105        C853   1.610   1_554  S
C105        C873   1.645       .  S
C105        C893   1.672   1_554  S
C105        C913   1.625   1_554  S
C106        C813   1.604   1_554  S
C106        C833   1.618   1_554  S
C106        C953   1.615       .  S
C106       C1062   1.634   1_554  S
C107        C782   1.627   1_556  S
C107        C793   1.629       .  S
C107        C842   1.586       .  S
C107        C922   1.598       .  S
C108        C762   1.623       .  S
C108        C822   1.613       .  S
C108        C982   1.627       .  S
C108       C1042   1.639   1_554  S
C109        C713   1.623       .  S
C109        C733   1.637       .  S
C109        C802   1.621   1_565  S
C109        C902   1.625       .  S
C110        C693   1.605       .  S
C110        C742   1.631       .  S
C110        C773   1.620       .  S
C110        C882   1.614       .  S
C111        C653   1.599       .  S
C111        C673   1.628       .  S
C111       C1233   1.629   1_565  S
C111       C1282   1.603       .  S
C112        C633   1.600       .  S
C112        C682   1.619       .  S
C112       C1222   1.618       .  S
C112       C1253   1.617   1_545  S
N113        N114   1.323       .  A
N113        C117   1.351       .  A
N113       Cu121   2.108       .  S
N114        C115   1.342       .  A
N114       Cu120   2.069       .  S
C115        C116   1.380       .  A
C115        H118   1.082       .  S
C116        C117   1.391       .  A
C116        C140   1.471       .  S
C117        H119   1.082       .  S
Cu120       N123   2.070       .  S
Cu121       N131   2.107       .  S
Cu122       N124   2.054       .  S
Cu122       N130   2.052       .  S
N123        N124   1.319       .  A
N123        C127   1.347       .  A
N124        C125   1.340       .  A
C125        C126   1.381       .  A
C125        H128   1.082       .  S
C126        C127   1.385       .  A
C126        C198   1.468       .  S
C127        H129   1.082       .  S
N130        N131   1.321       .  A
N130        C134   1.341       .  A
N131        C132   1.351       .  A
C132        C133   1.395       .  A
C132        H135   1.082       .  S
C133        C134   1.380       .  A
C133        C702   1.492       .  S
C134        H136   1.082       .  S
N137        N138   1.323       .  A
N137        C141   1.352       .  A
N137       Cu145   2.101       .  S
N138        C139   1.340       .  A
N138       Cu144   2.068   1_565  S
C139        C140   1.378       .  A
C139        H142   1.082       .  S
C140        C141   1.390       .  A
C141        H143   1.082       .  S
Cu144       N147   2.069       .  S
Cu145       N155   2.101   1_565  S
Cu146       N148   2.048       .  S
Cu146       N154   2.049       .  S
N147        N148   1.318       .  A
N147        C151   1.344       .  A
N148        C149   1.343       .  A
C149        C150   1.382       .  A
C149        H152   1.082       .  S
C150        C151   1.386       .  A
C150        C174   1.470       .  S
C151        H153   1.082       .  S
N154        N155   1.325       .  A
N154        C158   1.340       .  A
N155        C156   1.349   1_545  A
C156        C157   1.386   1_565  A
C156        H159   1.082       .  S
C157        C158   1.372       .  A
C157        C642   1.470       .  S
C158        H160   1.082       .  S
N161        N162   1.323       .  A
N161        C165   1.352       .  A
N161       Cu169   2.101       .  S
N162        C163   1.341       .  A
N162       Cu168   2.056   1_565  S
C163        C164   1.376       .  A
C163        H166   1.082       .  S
C164        C165   1.388       .  A
C164        C188   1.469       .  S
C165        H167   1.082       .  S
Cu168       N171   2.055       .  S
Cu169       N179   2.103   1_565  S
Cu170       N172   2.074       .  S
Cu170       N178   2.076       .  S
N171        N172   1.320       .  A
N171        C175   1.342       .  A
N172        C173   1.346       .  A
C173        C174   1.386       .  A
C173        H176   1.082       .  S
C174        C175   1.380       .  A
C175        H177   1.082       .  S
N178        N179   1.325       .  A
N178        C182   1.345       .  A
N179        C180   1.350   1_545  A
C180        C181   1.388   1_565  A
C180        H183   1.082       .  S
C181        C182   1.380       .  A
C181        C662   1.482       .  S
C182        H184   1.082       .  S
N185        N186   1.322       .  A
N185        C189   1.348       .  A
N185       Cu193   2.091       .  S
N186        C187   1.344       .  A
N186       Cu192   2.071       .  S
C187        C188   1.382       .  A
C187        H190   1.082       .  S
C188        C189   1.386       .  A
C189        H191   1.082       .  S
Cu192       N195   2.070       .  S
Cu193       N203   2.091       .  S
Cu194       N196   2.063       .  S
Cu194       N202   2.065       .  S
N195        N196   1.321       .  A
N195        C199   1.346       .  A
N196        C197   1.342       .  A
C197        C198   1.382       .  A
C197        H200   1.082       .  S
C198        C199   1.383       .  A
C199        H201   1.082       .  S
N202        N203   1.323       .  A
N202        C206   1.345       .  A
N203        C204   1.347       .  A
C204        C205   1.386       .  A
C204        H207   1.082       .  S
C205        C206   1.381       .  A
C205        C722   1.480       .  S
C206        H208   1.082       .  S
C209        C582   1.620       .  S
C209        C593   1.629   1_554  S
C209        C622   1.647       .  S
C209       C1193   1.623       .  S
C210        C542   1.616       .  S
C210        C553   1.634   1_554  S
C210        C613   1.632   1_554  S
C210        C753   1.596       .  S
C211        C482   1.621   1_556  S
C211        C493   1.643       .  S
C211        C522   1.634       .  S
C211        C862   1.620       .  S
C212        C433   1.594       .  S
C212        C462   1.653       .  S
C212        C513   1.660       .  S
C212       C1182   1.629       .  S
N213        N214   1.324       .  A
N213        C217   1.342       .  A
N213       Cu221   2.059       .  S
N214        C215   1.345       .  A
N214       Cu220   2.083       .  S
C215        C216   1.383       .  A
C215        H218   1.082       .  S
C216        C217   1.377       .  A
C216        C240   1.461       .  S
C217        H219   1.082       .  S
Cu220       N223   2.083       .  S
Cu221       N231   2.058       .  S
Cu222       N224   2.047       .  S
Cu222       N230   2.048       .  S
N223        N224   1.320       .  A
N223        C227   1.347       .  A
N224        C225   1.339       .  A
C225        C226   1.379       .  A
C225        H228   1.082       .  S
C226        C227   1.389       .  A
C226        C278   1.470       .  S
C227        H229   1.082       .  S
N230        N231   1.320       .  A
N230        C234   1.339       .  A
N231        C232   1.344       .  A
C232        C233   1.382       .  A
C232        H235   1.082       .  S
C233        C234   1.379       .  A
C233        C422   1.468       .  S
C234        H236   1.082       .  S
N237        N238   1.321       .  A
N237        C241   1.344       .  A
N237       Cu245   2.062       .  S
N238        C239   1.342       .  A
N238       Cu244   2.061       .  S
C239        C240   1.381       .  A
C239        H242   1.082       .  S
C240        C241   1.380       .  A
C241        H243   1.082       .  S
Cu244       N247   2.064       .  S
Cu245       N255   2.063       .  S
Cu246       N248   2.069       .  S
Cu246       N254   2.070       .  S
N247        N248   1.322       .  A
N247        C251   1.345       .  A
N248        C249   1.342       .  A
C249        C250   1.383       .  A
C249        H252   1.082       .  S
C250        C251   1.382       .  A
C250        C302   1.471       .  S
C251        H253   1.082       .  S
N254        N255   1.321       .  A
N254        C258   1.348       .  A
N255        C256   1.339       .  A
C256        C257   1.380       .  A
C256        H259   1.082       .  S
C257        C258   1.386       .  A
C257        C393   1.475       .  S
C258        H260   1.082       .  S
C261        C373   1.621       .  S
C261        C402   1.615       .  S
C261        C453   1.633       .  S
C261        C502   1.625       .  S
C262        C353   1.607       .  S
C262        C382   1.606       .  S
C262        C442   1.622       .  S
C262        C473   1.613       .  S
C263        C342   1.608       .  S
C263        C413   1.563       .  S
C263        C562   1.628       .  S
C263        C602   1.629       .  S
C264        C322   1.604       .  S
C264        C333   1.600       .  S
C264        C533   1.637       .  S
C264        C573   1.625       .  S
N265        N266   1.321       .  A
N265        C269   1.345       .  A
N265       Cu273   2.063       .  S
N266        C267   1.341       .  A
N266       Cu272   2.058       .  S
C267        C268   1.379       .  A
C267        H270   1.082       .  S
C268        C269   1.380       .  A
C268        C292   1.460       .  S
C269        H271   1.082       .  S
Cu272       N275   2.057       .  S
Cu273       N283   2.064       .  S
Cu274       N276   2.074       .  S
Cu274       N282   2.075       .  S
N275        N276   1.321       .  A
N275        C279   1.344       .  A
N276        C277   1.342       .  A
C277        C278   1.385       .  A
C277        H280   1.082       .  S
C278        C279   1.382       .  A
C279        H281   1.082       .  S
N282        N283   1.322       .  A
N282        C286   1.348       .  A
N283        C284   1.341       .  A
C284        C285   1.383       .  A
C284        H287   1.082       .  S
C285        C286   1.386       .  A
C285        C313   1.483       .  S
C286        H288   1.082       .  S
N289        N290   1.325       .  A
N289        C293   1.345       .  A
N289       Cu297   2.066       .  S
N290        C291   1.343       .  A
N290       Cu296   2.079       .  S
C291        C292   1.380       .  A
C291        H294   1.082       .  S
C292        C293   1.377       .  A
C293        H295   1.082       .  S
Cu296       N299   2.077       .  S
Cu297       N307   2.066       .  S
Cu298       N300   2.052       .  S
Cu298       N306   2.052       .  S
N299        N300   1.319       .  A
N299        C303   1.347       .  A
N300        C301   1.341       .  A
C301        C302   1.381       .  A
C301        H304   1.082       .  S
C302        C303   1.388       .  A
C303        H305   1.082       .  S
N306        N307   1.321       .  A
N306        C310   1.336       .  A
N307        C308   1.348       .  A
C308        C309   1.385       .  A
C308        H311   1.082       .  S
C309        C310   1.378       .  A
C309        C362   1.473       .  S
C310        H312   1.082       .  S
C313        C314   1.412       .  A
C313        C318   1.410       .  A
C314        C315   1.407       .  A
C314       Br326   1.933       .  S
C315        C316   1.413       .  A
C315       Br330   1.928       .  S
C316        C317   1.413       .  A
C316        C319   1.495       .  S
C317        C318   1.409       .  A
C317       Br325   1.931       .  S
C318       Br329   1.929       .  S
C319        C320   1.399       .  A
C319        C324   1.407       .  A
C320        C321   1.392       .  A
C320       Br331   1.934       .  S
C321        C322   1.431       .  A
C321       Br327   1.933       .  S
C322        C323   1.452       .  A
C323        C324   1.429       .  A
C323       Br332   1.924       .  S
C324       Br328   1.935       .  S
C333        C334   1.422       .  A
C333        C338   1.447       .  A
C334        C335   1.380       .  A
C334       Br346   1.898       .  S
C335        C336   1.387       .  A
C335       Br350   1.906       .  S
C336        C337   1.409       .  A
C336        C339   1.501       .  S
C337        C338   1.434       .  A
C337       Br345   1.929       .  S
C338       Br349   1.911       .  S
C339        C340   1.405       .  A
C339        C344   1.399       .  A
C340        C341   1.421   1_554  A
C340       Br351   1.934       .  S
C341        C342   1.441       .  A
C341       Br347   1.922       .  S
C342        C343   1.439       .  A
C343        C344   1.416   1_556  A
C343       Br352   1.914       .  S
C344       Br348   1.935       .  S
C353        C354   1.437       .  A
C353        C358   1.454       .  A
C354        C355   1.416       .  A
C354       Br366   1.911       .  S
C355        C356   1.399       .  A
C355       Br370   1.937       .  S
C356        C357   1.390       .  A
C356        C359   1.479       .  S
C357        C358   1.403       .  A
C357       Br365   1.940       .  S
C358       Br369   1.946       .  S
C359        C360   1.409       .  A
C359        C364   1.408       .  A
C360        C361   1.399       .  A
C360       Br371   1.934       .  S
C361        C362   1.409       .  A
C361       Br367   1.934       .  S
C362        C363   1.412       .  A
C363        C364   1.409       .  A
C363       Br372   1.928       .  S
C364       Br368   1.927       .  S
C373        C374   1.456       .  A
C373        C378   1.451       .  A
C374        C375   1.420       .  A
C374       Br386   1.931       .  S
C375        C376   1.400       .  A
C375       Br390   1.952       .  S
C376        C377   1.396       .  A
C376        C379   1.496       .  S
C377        C378   1.413       .  A
C377       Br385   1.939       .  S
C378       Br389   1.931       .  S
C379        C380   1.400       .  A
C379        C384   1.399       .  A
C380        C381   1.405       .  A
C380       Br391   1.929       .  S
C381        C382   1.439   1_556  A
C381       Br387   1.915       .  S
C382        C383   1.453   1_554  A
C383        C384   1.413       .  A
C383       Br392   1.929   1_556  S
C384       Br388   1.933       .  S
C393        C394   1.411       .  A
C393        C398   1.409       .  A
C394        C395   1.407       .  A
C394       Br406   1.931       .  S
C395        C396   1.410       .  A
C395       Br410   1.926       .  S
C396        C397   1.410       .  A
C396        C399   1.484       .  S
C397        C398   1.405       .  A
C397       Br405   1.931       .  S
C398       Br409   1.930       .  S
C399        C400   1.393       .  A
C399        C404   1.397       .  A
C400        C401   1.404       .  A
C400       Br411   1.947       .  S
C401        C402   1.451       .  A
C401       Br407   1.934       .  S
C402        C403   1.448       .  A
C403        C404   1.422       .  A
C403       Br412   1.918       .  S
C404       Br408   1.936       .  S
C413        C414   1.443       .  A
C413        C418   1.444       .  A
C414        C415   1.402       .  A
C414       Br426   1.938       .  S
C415        C416   1.396       .  A
C415       Br430   1.939       .  S
C416        C417   1.401       .  A
C416        C419   1.478       .  S
C417        C418   1.409       .  A
C417       Br425   1.934       .  S
C418       Br429   1.944       .  S
C419        C420   1.411       .  A
C419        C424   1.409       .  A
C420        C421   1.399       .  A
C420       Br431   1.932       .  S
C421        C422   1.409       .  A
C421       Br427   1.935       .  S
C422        C423   1.409       .  A
C423        C424   1.406       .  A
C423       Br432   1.929       .  S
C424       Br428   1.929       .  S
C433        C434   1.442       .  A
C433        C438   1.456   1_556  A
C434        C435   1.394   1_556  A
C434       Br446   1.950       .  S
C435        C436   1.394       .  A
C435       Br450   1.898       .  S
C436        C437   1.403       .  A
C436        C439   1.505       .  S
C437        C438   1.432       .  A
C437       Br445   1.933       .  S
C438       Br449   1.932       .  S
C439        C440   1.397       .  A
C439        C444   1.403       .  A
C440        C441   1.417       .  A
C440       Br451   1.929       .  S
C441        C442   1.456       .  A
C441       Br447   1.943       .  S
C442        C443   1.429       .  A
C443        C444   1.424       .  A
C443       Br452   1.925       .  S
C444       Br448   1.927       .  S
C453        C454   1.462       .  A
C453        C458   1.443       .  A
C454        C455   1.444       .  A
C454       Br466   1.915       .  S
C455        C456   1.404       .  A
C455       Br470   1.928       .  S
C456        C457   1.370       .  A
C456        C459   1.514       .  S
C457        C458   1.401       .  A
C457       Br465   1.906       .  S
C458       Br469   1.912       .  S
C459        C460   1.391       .  A
C459        C464   1.406       .  A
C460        C461   1.423       .  A
C460       Br471   1.936       .  S
C461        C462   1.480       .  A
C461       Br467   1.963       .  S
C462        C463   1.436       .  A
C463        C464   1.425       .  A
C463       Br472   1.938       .  S
C464       Br468   1.924       .  S
C473        C474   1.427       .  A
C473        C478   1.452       .  A
C474        C475   1.379       .  A
C474       Br486   1.910   1_554  S
C475        C476   1.392       .  A
C475       Br490   1.926       .  S
C476        C477   1.418       .  A
C476        C479   1.506       .  S
C477        C478   1.445       .  A
C477       Br485   1.927       .  S
C478       Br489   1.923       .  S
C479        C480   1.395       .  A
C479        C484   1.407       .  A
C480        C481   1.422       .  A
C480       Br491   1.941       .  S
C481        C482   1.453       .  A
C481       Br487   1.914       .  S
C482        C483   1.450   1_554  A
C483        C484   1.421   1_556  A
C483       Br492   1.939       .  S
C484       Br488   1.930   1_554  S
C493        C494   1.455       .  A
C493        C498   1.443       .  A
C494        C495   1.444       .  A
C494       Br506   1.913       .  S
C495        C496   1.409       .  A
C495       Br510   1.925       .  S
C496        C497   1.385       .  A
C496        C499   1.525       .  S
C497        C498   1.394       .  A
C497       Br505   1.890       .  S
C498       Br509   1.916       .  S
C499        C500   1.411       .  A
C499        C504   1.407       .  A
C500        C501   1.431       .  A
C500       Br511   1.923       .  S
C501        C502   1.427       .  A
C501       Br507   1.938       .  S
C502        C503   1.444       .  A
C503        C504   1.418       .  A
C503       Br512   1.952       .  S
C504       Br508   1.911       .  S
C513        C514   1.457   1_556  A
C513        C518   1.445       .  A
C514        C515   1.429       .  A
C514       Br526   1.933       .  S
C515        C516   1.407   1_554  A
C515       Br530   1.928       .  S
C516        C517   1.418       .  A
C516        C519   1.546       .  S
C517        C518   1.440       .  A
C517       Br525   1.938       .  S
C518       Br529   1.912       .  S
C519        C520   1.397       .  A
C519        C524   1.435   1_556  A
C520        C521   1.378       .  A
C520       Br531   1.863       .  S
C521        C522   1.405       .  A
C521       Br527   1.909       .  S
C522        C523   1.438       .  A
C523        C524   1.459   1_556  A
C523       Br532   1.936   1_556  S
C524       Br528   1.922       .  S
C533        C534   1.456       .  A
C533        C538   1.433       .  A
C534        C535   1.417       .  A
C534       Br546   1.945       .  S
C535        C536   1.406       .  A
C535       Br550   1.932       .  S
C536        C537   1.410       .  A
C536        C539   1.521       .  S
C537        C538   1.426       .  A
C537       Br545   1.928       .  S
C538       Br549   1.918       .  S
C539        C540   1.406       .  A
C539        C544   1.392       .  A
C540        C541   1.436       .  A
C540       Br551   1.935       .  S
C541        C542   1.463       .  A
C541       Br547   1.935       .  S
C542        C543   1.437       .  A
C543        C544   1.399       .  A
C543       Br552   1.920       .  S
C544       Br548   1.896       .  S
C553        C554   1.459       .  A
C553        C558   1.453       .  A
C554        C555   1.417       .  A
C554       Br566   1.932   1_556  S
C555        C556   1.392       .  A
C555       Br570   1.928       .  S
C556        C557   1.400       .  A
C556        C559   1.516       .  S
C557        C558   1.428       .  A
C557       Br565   1.926       .  S
C558       Br569   1.939       .  S
C559        C560   1.416       .  A
C559        C564   1.385       .  A
C560        C561   1.445       .  A
C560       Br571   1.924       .  S
C561        C562   1.462       .  A
C561       Br567   1.932       .  S
C562        C563   1.413       .  A
C563        C564   1.391       .  A
C563       Br572   1.883       .  S
C564       Br568   1.907       .  S
C573        C574   1.454       .  A
C573        C578   1.420       .  A
C574        C575   1.425       .  A
C574       Br586   1.934       .  S
C575        C576   1.406       .  A
C575       Br590   1.933       .  S
C576        C577   1.416       .  A
C576        C579   1.521       .  S
C577        C578   1.415       .  A
C577       Br585   1.915       .  S
C578       Br589   1.927       .  S
C579        C580   1.394       .  A
C579        C584   1.408       .  A
C580        C581   1.395       .  A
C580       Br591   1.926       .  S
C581        C582   1.438       .  A
C581       Br587   1.905       .  S
C582        C583   1.456       .  A
C583        C584   1.440       .  A
C583       Br592   1.913       .  S
C584       Br588   1.929       .  S
C593        C594   1.452       .  A
C593        C598   1.445       .  A
C594        C595   1.418       .  A
C594       Br606   1.943   1_556  S
C595        C596   1.405       .  A
C595       Br610   1.933       .  S
C596        C597   1.402       .  A
C596        C599   1.508       .  S
C597        C598   1.424       .  A
C597       Br605   1.936       .  S
C598       Br609   1.917       .  S
C599        C600   1.381       .  A
C599        C604   1.416       .  A
C600        C601   1.372       .  A
C600       Br611   1.891       .  S
C601        C602   1.405       .  A
C601       Br607   1.898   1_556  S
C602        C603   1.468       .  A
C603        C604   1.448       .  A
C603       Br612   1.937       .  S
C604       Br608   1.927       .  S
C613        C614   1.447   1_556  A
C613        C618   1.444       .  A
C614        C615   1.421       .  A
C614       Br626   1.925       .  S
C615        C616   1.404   1_554  A
C615       Br630   1.932       .  S
C616        C617   1.413       .  A
C616        C619   1.540       .  S
C617        C618   1.429       .  A
C617       Br625   1.927       .  S
C618       Br629   1.916       .  S
C619        C620   1.414   1_556  A
C619        C624   1.412       .  A
C620        C621   1.428       .  A
C620       Br631   1.946       .  S
C621        C622   1.459       .  A
C621       Br627   1.946       .  S
C622        C623   1.438   1_554  A
C623        C624   1.432       .  A
C623       Br632   1.942       .  S
C624       Br628   1.932       .  S
C633        C634   1.441       .  A
C633        C638   1.429   1_545  A
C634        C635   1.421       .  A
C634       Br646   1.925       .  S
C635        C636   1.405       .  A
C635       Br650   1.936       .  S
C636        C637   1.404   1_545  A
C636        C639   1.490       .  S
C637        C638   1.400       .  A
C637       Br645   1.933       .  S
C638       Br649   1.935       .  S
C639        C640   1.415       .  A
C639        C644   1.412   1_545  A
C640        C641   1.407       .  A
C640       Br651   1.925       .  S
C641        C642   1.406       .  A
C641       Br647   1.932       .  S
C642        C643   1.406   1_545  A
C643        C644   1.405       .  A
C643       Br652   1.929       .  S
C644       Br648   1.932       .  S
C653        C654   1.431       .  A
C653        C658   1.440   1_565  A
C654        C655   1.402       .  A
C654       Br666   1.920       .  S
C655        C656   1.398   1_565  A
C655       Br670   1.931       .  S
C656        C657   1.406       .  A
C656        C659   1.495       .  S
C657        C658   1.423       .  A
C657       Br665   1.934       .  S
C658       Br669   1.928       .  S
C659        C660   1.411       .  A
C659        C664   1.413   1_545  A
C660        C661   1.412       .  A
C660       Br671   1.927       .  S
C661        C662   1.411       .  A
C661       Br667   1.928       .  S
C662        C663   1.409   1_545  A
C663        C664   1.408       .  A
C663       Br672   1.930       .  S
C664       Br668   1.931       .  S
C673        C674   1.422   1_565  A
C673        C678   1.454       .  A
C674        C675   1.407       .  A
C674       Br686   1.920       .  S
C675        C676   1.404   1_556  A
C675       Br690   1.919       .  S
C676        C677   1.406   1_544  A
C676        C679   1.506       .  S
C677        C678   1.424       .  A
C677       Br685   1.925   1_556  S
C678       Br689   1.931       .  S
C679        C680   1.409       .  A
C679        C684   1.381       .  A
C680        C681   1.443       .  A
C680       Br691   1.928       .  S
C681        C682   1.452       .  A
C681       Br687   1.899       .  S
C682        C683   1.414       .  A
C683        C684   1.378       .  A
C683       Br692   1.871       .  S
C684       Br688   1.881   1_545  S
C693        C694   1.457       .  A
C693        C698   1.443       .  A
C694        C695   1.423       .  A
C694       Br706   1.935   1_565  S
C695        C696   1.399       .  A
C695       Br710   1.942   1_565  S
C696        C697   1.397       .  A
C696        C699   1.497       .  S
C697        C698   1.411       .  A
C697       Br705   1.944       .  S
C698       Br709   1.912       .  S
C699        C700   1.409       .  A
C699        C704   1.413       .  A
C700        C701   1.409       .  A
C700       Br711   1.933       .  S
C701        C702   1.419       .  A
C701       Br707   1.932       .  S
C702        C703   1.413       .  A
C703        C704   1.410       .  A
C703       Br712   1.931   1_565  S
C704       Br708   1.929   1_565  S
C713        C714   1.440       .  A
C713        C718   1.450       .  A
C714        C715   1.424       .  A
C714       Br726   1.919       .  S
C715        C716   1.404       .  A
C715       Br730   1.932       .  S
C716        C717   1.392       .  A
C716        C719   1.487       .  S
C717        C718   1.399       .  A
C717       Br725   1.940       .  S
C718       Br729   1.939   1_565  S
C719        C720   1.412       .  A
C719        C724   1.408       .  A
C720        C721   1.407       .  A
C720       Br731   1.931   1_565  S
C721        C722   1.410       .  A
C721       Br727   1.930       .  S
C722        C723   1.412       .  A
C723        C724   1.410       .  A
C723       Br732   1.929       .  S
C724       Br728   1.928       .  S
C733        C734   1.463   1_565  A
C733        C738   1.461       .  A
C734        C735   1.422       .  A
C734       Br746   1.909       .  S
C735        C736   1.388   1_545  A
C735       Br750   1.944       .  S
C736        C737   1.387       .  A
C736        C739   1.493   1_556  S
C737        C738   1.411       .  A
C737       Br745   1.939       .  S
C738       Br749   1.934       .  S
C739        C740   1.400       .  A
C739        C744   1.405       .  A
C740        C741   1.395       .  A
C740       Br751   1.930   1_554  S
C741        C742   1.440       .  A
C741       Br747   1.945       .  S
C742        C743   1.441       .  A
C743        C744   1.425       .  A
C743       Br752   1.929       .  S
C744       Br748   1.934       .  S
C753        C754   1.451       .  A
C753        C758   1.445   1_554  A
C754        C755   1.409       .  A
C754       Br766   1.921       .  S
C755        C756   1.399       .  A
C755       Br770   1.940       .  S
C756        C757   1.406       .  A
C756        C759   1.500       .  S
C757        C758   1.413   1_554  A
C757       Br765   1.930       .  S
C758       Br769   1.937       .  S
C759        C760   1.410       .  A
C759        C764   1.400   1_554  A
C760        C761   1.428       .  A
C760       Br771   1.937       .  S
C761        C762   1.464       .  A
C761       Br767   1.932       .  S
C762        C763   1.418   1_554  A
C763        C764   1.396       .  A
C763       Br772   1.934   1_556  S
C764       Br768   1.921       .  S
C773        C774   1.445       .  A
C773        C778   1.438   1_565  A
C774        C775   1.418   1_565  A
C774       Br786   1.940       .  S
C775        C776   1.411       .  A
C775       Br790   1.917       .  S
C776        C777   1.409       .  A
C776        C779   1.527       .  S
C777        C778   1.426       .  A
C777       Br785   1.935       .  S
C778       Br789   1.917       .  S
C779        C780   1.406       .  A
C779        C784   1.407       .  A
C780        C781   1.432       .  A
C780       Br791   1.936       .  S
C781        C782   1.453       .  A
C781       Br787   1.932       .  S
C782        C783   1.426   1_554  A
C783        C784   1.415   1_556  A
C783       Br792   1.915       .  S
C784       Br788   1.910   1_554  S
C793        C794   1.437       .  A
C793        C798   1.417       .  A
C794        C795   1.442       .  A
C794       Br806   1.929       .  S
C795        C796   1.426       .  A
C795       Br810   1.929       .  S
C796        C797   1.429       .  A
C796        C799   1.523       .  S
C797        C798   1.391       .  A
C797       Br805   1.925   1_545  S
C798       Br809   1.941       .  S
C799        C800   1.415       .  A
C799        C804   1.391       .  A
C800        C801   1.429       .  A
C800       Br811   1.925       .  S
C801        C802   1.418       .  A
C801       Br807   1.923       .  S
C802        C803   1.463   1_545  A
C803        C804   1.416   1_565  A
C803       Br812   1.940       .  S
C804       Br808   1.935       .  S
C813        C814   1.444       .  A
C813        C818   1.427   1_556  A
C814        C815   1.406   1_655  A
C814       Br826   1.936       .  S
C815        C816   1.406       .  A
C815       Br830   1.936       .  S
C816        C817   1.408   1_456  A
C816        C819   1.502   1_556  S
C817        C818   1.423       .  A
C817       Br825   1.924   1_655  S
C818       Br829   1.935       .  S
C819        C820   1.399   1_554  A
C819        C824   1.390       .  A
C820        C821   1.422       .  A
C820       Br831   1.932       .  S
C821        C822   1.456   1_556  A
C821       Br827   1.946       .  S
C822        C823   1.435       .  A
C823        C824   1.390       .  A
C823       Br832   1.947       .  S
C824       Br828   1.900       .  S
C833        C834   1.449       .  A
C833        C838   1.453   1_556  A
C834        C835   1.416       .  A
C834       Br846   1.925       .  S
C835        C836   1.396       .  A
C835       Br850   1.938       .  S
C836        C837   1.392   1_556  A
C836        C839   1.484       .  S
C837        C838   1.404       .  A
C837       Br845   1.944       .  S
C838       Br849   1.942       .  S
C839        C840   1.397       .  A
C839        C844   1.400       .  A
C840        C841   1.413       .  A
C840       Br851   1.935       .  S
C841        C842   1.442       .  A
C841       Br847   1.928       .  S
C842        C843   1.443       .  A
C843        C844   1.406       .  A
C843       Br852   1.942   1_556  S
C844       Br848   1.942   1_556  S
C853        C854   1.438       .  A
C853        C858   1.438   1_556  A
C854        C855   1.423       .  A
C854       Br866   1.930       .  S
C855        C856   1.406       .  A
C855       Br870   1.930       .  S
C856        C857   1.399   1_556  A
C856        C859   1.506       .  S
C857        C858   1.412       .  A
C857       Br865   1.941       .  S
C858       Br869   1.923       .  S
C859        C860   1.396       .  A
C859        C864   1.406       .  A
C860        C861   1.405   1_556  A
C860       Br871   1.940   1_556  S
C861        C862   1.449   1_554  A
C861       Br867   1.937       .  S
C862        C863   1.446       .  A
C863        C864   1.432       .  A
C863       Br872   1.914       .  S
C864       Br868   1.932       .  S
C873        C874   1.436       .  A
C873        C878   1.454       .  A
C874        C875   1.433       .  A
C874       Br886   1.941       .  S
C875        C876   1.408       .  A
C875       Br890   1.924       .  S
C876        C877   1.398       .  A
C876        C879   1.508       .  S
C877        C878   1.411       .  A
C877       Br885   1.940       .  S
C878       Br889   1.940       .  S
C879        C880   1.382       .  A
C879        C884   1.410       .  A
C880        C881   1.390       .  A
C880       Br891   1.906       .  S
C881        C882   1.442       .  A
C881       Br887   1.926       .  S
C882        C883   1.455       .  A
C883        C884   1.440       .  A
C883       Br892   1.936       .  S
C884       Br888   1.927       .  S
C893        C894   1.454       .  A
C893        C898   1.456       .  A
C894        C895   1.428       .  A
C894       Br906   1.932       .  S
C895        C896   1.400       .  A
C895       Br910   1.930       .  S
C896        C897   1.396       .  A
C896        C899   1.522       .  S
C897        C898   1.433       .  A
C897       Br905   1.940       .  S
C898       Br909   1.920       .  S
C899        C900   1.391       .  A
C899        C904   1.414       .  A
C900        C901   1.411       .  A
C900       Br911   1.937       .  S
C901        C902   1.448       .  A
C901       Br907   1.920       .  S
C902        C903   1.450       .  A
C903        C904   1.440       .  A
C903       Br912   1.928       .  S
C904       Br908   1.930       .  S
C913        C914   1.418   1_556  A
C913        C918   1.412       .  A
C914        C915   1.421       .  A
C914       Br926   1.929       .  S
C915        C916   1.413   1_554  A
C915       Br930   1.928       .  S
C916        C917   1.411       .  A
C916        C919   1.500       .  S
C917        C918   1.408       .  A
C917       Br925   1.911       .  S
C918       Br929   1.934       .  S
C919        C920   1.400   1_556  A
C919        C924   1.417   1_565  A
C920        C921   1.391   1_565  A
C920       Br931   1.916       .  S
C921        C922   1.415   1_554  A
C921       Br927   1.915       .  S
C922        C923   1.442       .  A
C923        C924   1.430       .  A
C923       Br932   1.946       .  S
C924       Br928   1.928   1_545  S
C933        C934   1.410       .  A
C933        C938   1.409       .  A
C934        C935   1.406       .  A
C934       Br946   1.930   1_455  S
C935        C936   1.411       .  A
C935       Br950   1.932       .  S
C936        C937   1.412       .  A
C936        C939   1.491       .  S
C937        C938   1.409       .  A
C937       Br945   1.925       .  S
C938       Br949   1.930       .  S
C939        C940   1.400       .  A
C939        C944   1.398       .  A
C940        C941   1.418       .  A
C940       Br951   1.934       .  S
C941        C942   1.443       .  A
C941       Br947   1.935       .  S
C942        C943   1.455       .  A
C943        C944   1.412       .  A
C943       Br952   1.938   1_455  S
C944       Br948   1.944   1_455  S
C953        C954   1.448       .  A
C953        C958   1.449       .  A
C954        C955   1.414       .  A
C954       Br966   1.919       .  S
C955        C956   1.399       .  A
C955       Br970   1.930   1_655  S
C956        C957   1.397       .  A
C956        C959   1.499       .  S
C957        C958   1.414       .  A
C957       Br965   1.933       .  S
C958       Br969   1.930       .  S
C959        C960   1.414       .  A
C959        C964   1.405       .  A
C960        C961   1.423       .  A
C960       Br971   1.926       .  S
C961        C962   1.425   1_655  A
C961       Br967   1.943       .  S
C962        C963   1.454   1_455  A
C963        C964   1.400       .  A
C963       Br972   1.955       .  S
C964       Br968   1.942       .  S
C973        C974   1.446       .  A
C973        C978   1.450       .  A
C974        C975   1.428       .  A
C974       Br986   1.936       .  S
C975        C976   1.430       .  A
C975       Br990   1.927       .  S
C976        C977   1.402       .  A
C976        C979   1.560       .  S
C977        C978   1.425       .  A
C977       Br985   1.935       .  S
C978       Br989   1.907       .  S
C979        C980   1.432       .  A
C979        C984   1.406       .  A
C980        C981   1.430       .  A
C980       Br991   1.934       .  S
C981        C982   1.447       .  A
C981       Br987   1.943       .  S
C982        C983   1.446       .  A
C983        C984   1.432       .  A
C983       Br992   1.918       .  S
C984       Br988   1.939       .  S
C993        C994   1.429       .  A
C993        C998   1.436       .  A
C994        C995   1.403       .  A
C994      Br1006   1.918       .  S
C995        C996   1.401       .  A
C995      Br1010   1.933       .  S
C996        C997   1.407       .  A
C996        C999   1.498       .  S
C997        C998   1.423       .  A
C997      Br1005   1.933       .  S
C998      Br1009   1.927       .  S
C999       C1000   1.411       .  A
C999       C1004   1.411       .  A
C1000      C1001   1.413       .  A
C1000     Br1011   1.926       .  S
C1001      C1002   1.414       .  A
C1001     Br1007   1.930       .  S
C1002      C1003   1.418       .  A
C1003      C1004   1.410       .  A
C1003     Br1012   1.933       .  S
C1004     Br1008   1.934       .  S
C1013      C1014   1.453       .  A
C1013      C1018   1.408       .  A
C1014      C1015   1.420       .  A
C1014     Br1026   1.928       .  S
C1015      C1016   1.404       .  A
C1015     Br1030   1.929   1_556  S
C1016      C1017   1.406       .  A
C1016      C1019   1.494   1_556  S
C1017      C1018   1.401       .  A
C1017     Br1025   1.918       .  S
C1018     Br1029   1.920       .  S
C1019      C1020   1.392       .  A
C1019      C1024   1.400       .  A
C1020      C1021   1.384       .  A
C1020     Br1031   1.894       .  S
C1021      C1022   1.440       .  A
C1021     Br1027   1.958       .  S
C1022      C1023   1.452       .  A
C1023      C1024   1.424       .  A
C1023     Br1032   1.909       .  S
C1024     Br1028   1.939       .  S
C1033      C1034   1.449       .  A
C1033      C1038   1.417       .  A
C1034      C1035   1.450       .  A
C1034     Br1046   1.933       .  S
C1035      C1036   1.421       .  A
C1035     Br1050   1.921       .  S
C1036      C1037   1.382       .  A
C1036      C1039   1.518       .  S
C1037      C1038   1.386       .  A
C1037     Br1045   1.902       .  S
C1038     Br1049   1.888       .  S
C1039      C1040   1.385       .  A
C1039      C1044   1.412       .  A
C1040      C1041   1.408       .  A
C1040     Br1051   1.928       .  S
C1041      C1042   1.463       .  A
C1041     Br1047   1.917       .  S
C1042      C1043   1.451       .  A
C1043      C1044   1.441       .  A
C1043     Br1052   1.920       .  S
C1044     Br1048   1.919       .  S
C1053      C1054   1.441       .  A
C1053      C1058   1.445       .  A
C1054      C1055   1.423       .  A
C1054     Br1066   1.931       .  S
C1055      C1056   1.411   1_455  A
C1055     Br1070   1.912       .  S
C1056      C1057   1.406       .  A
C1056      C1059   1.532       .  S
C1057      C1058   1.430   1_655  A
C1057     Br1065   1.929       .  S
C1058     Br1069   1.925       .  S
C1059      C1060   1.415       .  A
C1059      C1064   1.388       .  A
C1060      C1061   1.448       .  A
C1060     Br1071   1.927       .  S
C1061      C1062   1.454       .  A
C1061     Br1067   1.923       .  S
C1062      C1063   1.448       .  A
C1063      C1064   1.405       .  A
C1063     Br1072   1.917   1_656  S
C1064     Br1068   1.923   1_655  S
C1073      C1074   1.412       .  A
C1073      C1078   1.408       .  A
C1074      C1075   1.410       .  A
C1074     Br1086   1.930       .  S
C1075      C1076   1.411       .  A
C1075     Br1090   1.931       .  S
C1076      C1077   1.414       .  A
C1076      C1079   1.497       .  S
C1077      C1078   1.409       .  A
C1077     Br1085   1.924   1_655  S
C1078     Br1089   1.931   1_655  S
C1079      C1080   1.399       .  A
C1079      C1084   1.404       .  A
C1080      C1081   1.411       .  A
C1080     Br1091   1.940       .  S
C1081      C1082   1.456       .  A
C1081     Br1087   1.962       .  S
C1082      C1083   1.433       .  A
C1083      C1084   1.420       .  A
C1083     Br1092   1.919       .  S
C1084     Br1088   1.932       .  S
C1093      C1094   1.419   1_455  A
C1093      C1098   1.417       .  A
C1094      C1095   1.409       .  A
C1094     Br1106   1.933       .  S
C1095      C1096   1.409   1_655  A
C1095     Br1110   1.934       .  S
C1096      C1097   1.409       .  A
C1096      C1099   1.496       .  S
C1097      C1098   1.413       .  A
C1097     Br1105   1.929       .  S
C1098     Br1109   1.930       .  S
C1099      C1100   1.401       .  A
C1099      C1104   1.396   1_455  A
C1100      C1101   1.422       .  A
C1100     Br1111   1.937       .  S
C1101      C1102   1.444   1_455  A
C1101     Br1107   1.919       .  S
C1102      C1103   1.440       .  A
C1103      C1104   1.408       .  A
C1103     Br1112   1.915       .  S
C1104     Br1108   1.940       .  S
C1113      C1114   1.433   1_655  A
C1113      C1118   1.467       .  A
C1114      C1115   1.412       .  A
C1114     Br1126   1.920       .  S
C1115      C1116   1.404   1_456  A
C1115     Br1130   1.927   1_556  S
C1116      C1117   1.389   1_554  A
C1116      C1119   1.498       .  S
C1117      C1118   1.415       .  A
C1117     Br1125   1.929   1_556  S
C1118     Br1129   1.945       .  S
C1119      C1120   1.414       .  A
C1119      C1124   1.401       .  A
C1120      C1121   1.437       .  A
C1120     Br1131   1.927       .  S
C1121      C1122   1.461       .  A
C1121     Br1127   1.923   1_655  S
C1122      C1123   1.377       .  A
C1123      C1124   1.373       .  A
C1123     Br1132   1.914   1_655  S
C1124     Br1128   1.875       .  S
C1133      C1134   1.438       .  A
C1133      C1138   1.452       .  A
C1134      C1135   1.419       .  A
C1134     Br1146   1.916   1_554  S
C1135      C1136   1.413       .  A
C1135     Br1150   1.918       .  S
C1136      C1137   1.406       .  A
C1136      C1139   1.537       .  S
C1137      C1138   1.424       .  A
C1137     Br1145   1.934       .  S
C1138     Br1149   1.922       .  S
C1139      C1140   1.418       .  A
C1139      C1144   1.424       .  A
C1140      C1141   1.428       .  A
C1140     Br1151   1.933       .  S
C1141      C1142   1.423       .  A
C1141     Br1147   1.937       .  S
C1142      C1143   1.434       .  A
C1143      C1144   1.428       .  A
C1143     Br1152   1.927       .  S
C1144     Br1148   1.936       .  S
C1153      C1154   1.431       .  A
C1153      C1158   1.447       .  A
C1154      C1155   1.388       .  A
C1154     Br1166   1.897   1_655  S
C1155      C1156   1.398       .  A
C1155     Br1170   1.938       .  S
C1156      C1157   1.419       .  A
C1156      C1159   1.525       .  S
C1157      C1158   1.445       .  A
C1157     Br1165   1.926       .  S
C1158     Br1169   1.926       .  S
C1159      C1160   1.419       .  A
C1159      C1164   1.398       .  A
C1160      C1161   1.426       .  A
C1160     Br1171   1.917       .  S
C1161      C1162   1.416       .  A
C1161     Br1167   1.931       .  S
C1162      C1163   1.458       .  A
C1163      C1164   1.419       .  A
C1163     Br1172   1.943       .  S
C1164     Br1168   1.933       .  S
C1173      C1174   1.449       .  A
C1173      C1178   1.447   1_556  A
C1174      C1175   1.418       .  A
C1174     Br1186   1.933       .  S
C1175      C1176   1.400       .  A
C1175     Br1190   1.935       .  S
C1176      C1177   1.405   1_556  A
C1176      C1179   1.516       .  S
C1177      C1178   1.422       .  A
C1177     Br1185   1.934       .  S
C1178     Br1189   1.936       .  S
C1179      C1180   1.402   1_556  A
C1179      C1184   1.396       .  A
C1180      C1181   1.434   1_554  A
C1180     Br1191   1.935       .  S
C1181      C1182   1.460       .  A
C1181     Br1187   1.933       .  S
C1182      C1183   1.456       .  A
C1183      C1184   1.416       .  A
C1183     Br1192   1.913       .  S
C1184     Br1188   1.950       .  S
C1193      C1194   1.455       .  A
C1193      C1198   1.465   1_554  A
C1194      C1195   1.423       .  A
C1194     Br1206   1.921       .  S
C1195      C1196   1.396   1_554  A
C1195     Br1210   1.938       .  S
C1196      C1197   1.397       .  A
C1196      C1199   1.508       .  S
C1197      C1198   1.422       .  A
C1197     Br1205   1.948       .  S
C1198     Br1209   1.942       .  S
C1199      C1200   1.394   1_556  A
C1199      C1204   1.400       .  A
C1200      C1201   1.411       .  A
C1200     Br1211   1.933       .  S
C1201      C1202   1.453   1_554  A
C1201     Br1207   1.934       .  S
C1202      C1203   1.451       .  A
C1203      C1204   1.426       .  A
C1203     Br1212   1.911       .  S
C1204     Br1208   1.939       .  S
C1213      C1214   1.443       .  A
C1213      C1218   1.461       .  A
C1214      C1215   1.429       .  A
C1214     Br1226   1.910       .  S
C1215      C1216   1.407       .  A
C1215     Br1230   1.940       .  S
C1216      C1217   1.414       .  A
C1216      C1219   1.523       .  S
C1217      C1218   1.412       .  A
C1217     Br1225   1.947       .  S
C1218     Br1229   1.958       .  S
C1219      C1220   1.412       .  A
C1219      C1224   1.416       .  A
C1220      C1221   1.426       .  A
C1220     Br1231   1.930       .  S
C1221      C1222   1.441       .  A
C1221     Br1227   1.919       .  S
C1222      C1223   1.433       .  A
C1223      C1224   1.401       .  A
C1223     Br1232   1.925       .  S
C1224     Br1228   1.912       .  S
C1233      C1234   1.438       .  A
C1233      C1238   1.448       .  A
C1234      C1235   1.419       .  A
C1234     Br1246   1.922       .  S
C1235      C1236   1.401       .  A
C1235     Br1250   1.927       .  S
C1236      C1237   1.405       .  A
C1236      C1239   1.514       .  S
C1237      C1238   1.422       .  A
C1237     Br1245   1.923       .  S
C1238     Br1249   1.931   1_545  S
C1239      C1240   1.390       .  A
C1239      C1244   1.414       .  A
C1240      C1241   1.395       .  A
C1240     Br1251   1.924       .  S
C1241      C1242   1.451       .  A
C1241     Br1247   1.945   1_556  S
C1242      C1243   1.448       .  A
C1243      C1244   1.439       .  A
C1243     Br1252   1.927       .  S
C1244     Br1248   1.925       .  S
C1253      C1254   1.444       .  A
C1253      C1258   1.424       .  A
C1254      C1255   1.415       .  A
C1254     Br1266   1.932       .  S
C1255      C1256   1.400       .  A
C1255     Br1270   1.930       .  S
C1256      C1257   1.411       .  A
C1256      C1259   1.510       .  S
C1257      C1258   1.421       .  A
C1257     Br1265   1.920       .  S
C1258     Br1269   1.925       .  S
C1259      C1260   1.385       .  A
C1259      C1264   1.404       .  A
C1260      C1261   1.397       .  A
C1260     Br1271   1.897       .  S
C1261      C1262   1.444       .  A
C1261     Br1267   1.940   1_554  S
C1262      C1263   1.458       .  A
C1263      C1264   1.437       .  A
C1263     Br1272   1.918       .  S
C1264     Br1268   1.932       .  S
C1273      C1274   1.453       .  A
C1273      C1278   1.455       .  A
C1274      C1275   1.424       .  A
C1274     Br1286   1.915       .  S
C1275      C1276   1.400       .  A
C1275     Br1290   1.935       .  S
C1276      C1277   1.399       .  A
C1276      C1279   1.509       .  S
C1277      C1278   1.426       .  A
C1277     Br1285   1.934       .  S
C1278     Br1289   1.924   1_556  S
C1279      C1280   1.415       .  A
C1279      C1284   1.375       .  A
C1280      C1281   1.445       .  A
C1280     Br1291   1.923       .  S
C1281      C1282   1.452       .  A
C1281     Br1287   1.935       .  S
C1282      C1283   1.427       .  A
C1283      C1284   1.386       .  A
C1283     Br1292   1.895       .  S
C1284     Br1288   1.913       .  S
C1293      C1294   1.423   1_554  A
C1293      C1298   1.455       .  A
C1294      C1295   1.430       .  A
C1294     Br1306   1.938       .  S
C1295      C1296   1.417   1_556  A
C1295     Br1310   1.923       .  S
C1296      C1297   1.398       .  A
C1296      C1299   1.515   1_564  S
C1297      C1298   1.409       .  A
C1297     Br1305   1.923       .  S
C1298     Br1309   1.950       .  S
C1299      C1300   1.399       .  A
C1299      C1304   1.412   1_556  A
C1300      C1301   1.412       .  A
C1300     Br1311   1.933   1_545  S
C1301      C1302   1.459       .  A
C1301     Br1307   1.937       .  S
C1302      C1303   1.436   1_556  A
C1303      C1304   1.429       .  A
C1303     Br1312   1.934       .  S
C1304     Br1308   1.931       .  S
C1313      C1314   1.459       .  A
C1313      C1318   1.459       .  A
C1314      C1315   1.443       .  A
C1314     Br1326   1.913       .  S
C1315      C1316   1.407       .  A
C1315     Br1330   1.933       .  S
C1316      C1317   1.387       .  A
C1316      C1319   1.533       .  S
C1317      C1318   1.394       .  A
C1317     Br1325   1.911       .  S
C1318     Br1329   1.946   1_455  S
C1319      C1320   1.413       .  A
C1319      C1324   1.413       .  A
C1320      C1321   1.431       .  A
C1320     Br1331   1.925       .  S
C1321      C1322   1.426       .  A
C1321     Br1327   1.938       .  S
C1322      C1323   1.459       .  A
C1323      C1324   1.425       .  A
C1323     Br1332   1.955       .  S
C1324     Br1328   1.934       .  S
C1333      C1334   1.443       .  A
C1333      C1338   1.455   1_554  A
C1334      C1335   1.409   1_554  A
C1334     Br1346   1.929       .  S
C1335      C1336   1.392       .  A
C1335     Br1350   1.910   1_556  S
C1336      C1337   1.402       .  A
C1336      C1339   1.518       .  S
C1337      C1338   1.434       .  A
C1337     Br1345   1.936       .  S
C1338     Br1349   1.913       .  S
C1339      C1340   1.409       .  A
C1339      C1344   1.409       .  A
C1340      C1341   1.420       .  A
C1340     Br1351   1.927       .  S
C1341      C1342   1.429       .  A
C1341     Br1347   1.925       .  S
C1342      C1343   1.454       .  A
C1343      C1344   1.425       .  A
C1343     Br1352   1.947       .  S
C1344     Br1348   1.932       .  S
C1353      C1354   1.456       .  A
C1353      C1358   1.451       .  A
C1354      C1355   1.423       .  A
C1354     Br1366   1.933   1_554  S
C1355      C1356   1.401       .  A
C1355     Br1370   1.934   1_554  S
C1356      C1357   1.397       .  A
C1356      C1359   1.514   1_455  S
C1357      C1358   1.423       .  A
C1357     Br1365   1.930   1_455  S
C1358     Br1369   1.916       .  S
C1359      C1360   1.408       .  A
C1359      C1364   1.387       .  A
C1360      C1361   1.436       .  A
C1360     Br1371   1.930       .  S
C1361      C1362   1.450       .  A
C1361     Br1367   1.927       .  S
C1362      C1363   1.451       .  A
C1363      C1364   1.402       .  A
C1363     Br1372   1.941   1_554  S
C1364     Br1368   1.915   1_655  S
C1373      C1374   1.445   1_554  A
C1373      C1378   1.445       .  A
C1374      C1375   1.415       .  A
C1374     Br1386   1.936       .  S
C1375      C1376   1.400   1_556  A
C1375     Br1390   1.930       .  S
C1376      C1377   1.404       .  A
C1376      C1379   1.501       .  S
C1377      C1378   1.417       .  A
C1377     Br1385   1.939       .  S
C1378     Br1389   1.927       .  S
C1379      C1380   1.396       .  A
C1379      C1384   1.403       .  A
C1380      C1381   1.406       .  A
C1380     Br1391   1.937       .  S
C1381      C1382   1.445       .  A
C1381     Br1387   1.933       .  S
C1382      C1383   1.451       .  A
C1383      C1384   1.426       .  A
C1383     Br1392   1.923       .  S
C1384     Br1388   1.935       .  S
