geometry optimzed in LAMMPS
_audit_creation_date              2020-11-30 
_audit_creation_method            'lammps2cif' 
_symmetry_space_group_name_H-M    'P1' 
_symmetry_Int_Tables_number       1 
_symmetry_cell_setting            triclinic 
loop_ 
_symmetry_equiv_pos_as_xyz 
  x,y,z 
_cell_length_a                    109.43008814 
_cell_length_b                    109.20480994823193 
_cell_length_c                    36.61934052944772 
_cell_angle_alpha                 89.76524208681788 
_cell_angle_beta                  90.03891966788211 
_cell_angle_gamma                 120.00219744932001 
loop_ 
_atom_site_label 
_atom_site_type_symbol 
_atom_site_fract_x 
_atom_site_fract_y 
_atom_site_fract_z 
_atom_site_charge 
In1        In  0.66477674  0.46381776  0.71984050     1.36900
C2          C  0.66665531  0.46898362  0.64853733     0.77600
O3          O  0.68858103  0.47524276  0.72181069    -0.60900
O4          O  0.67722128  0.45495385  0.74623282    -0.51800
C5          C  0.65938323  0.47909954  0.76642543     0.70200
O6          O  0.65980670  0.48092385  0.73239049    -0.46600
C7          C  0.64061858  0.43942823  0.72356923     0.74900
O8          O  0.67048000  0.47866401  0.67183929    -0.58500
O9          O  0.65244681  0.44009142  0.72261655    -0.48600
O10         O  0.66233608  0.45685353  0.66178302    -0.54900
C11         C  0.68906479  0.46523738  0.73765705     0.85100
O12         O  0.66239840  0.46989157  0.77672545    -0.56800
O13         O  0.64116179  0.45122249  0.72222724    -0.60100
In14       In  0.52473334  0.32281405  0.71667961     1.36900
C15         C  0.52140113  0.32390768  0.64485411     0.77600
O16         O  0.53624007  0.34640877  0.72228140    -0.60900
O17         O  0.54821924  0.33611755  0.72498524    -0.51800
C18         C  0.50847515  0.32466391  0.76759219     0.70200
O19         O  0.50628770  0.32497308  0.73390543    -0.46600
C20         C  0.52139503  0.29707100  0.72605127     0.74900
O21         O  0.51259515  0.32337667  0.66788647    -0.58500
O22         O  0.53212372  0.30813419  0.73721044    -0.48600
O23         O  0.53190085  0.32382097  0.65868876    -0.54900
C24         C  0.54825901  0.34768039  0.72565216     0.85100
O25         O  0.51848947  0.32250399  0.77515199    -0.56800
O26         O  0.51218136  0.29915524  0.71128004    -0.60100
In27       In  0.66477815  0.46681765  0.30316001     1.36900
C28         C  0.66739095  0.47056208  0.37517404     0.77600
O29         O  0.64145634  0.45331076  0.31024340    -0.60900
O30         O  0.65216921  0.44451459  0.28229246    -0.51800
C31         C  0.65997644  0.48291030  0.25715307     0.70200
O32         O  0.65797280  0.48271948  0.29106649    -0.46600
C33         C  0.68983130  0.46927284  0.28954179     0.74900
O34         O  0.67038510  0.48056543  0.35313095    -0.58500
O35         O  0.67848234  0.45757400  0.28986796    -0.48600
O36         O  0.66314635  0.45876088  0.36025177    -0.54900
C37         C  0.64061410  0.44262565  0.29483599     0.85100
O38         O  0.66481431  0.47515860  0.24683716    -0.56800
O39         O  0.68829944  0.47981212  0.29512031    -0.60100
In40       In  0.52269790  0.32746587  0.29991396     1.36900
C41         C  0.51808943  0.32579492  0.37132495     0.77600
O42         O  0.51031555  0.30356957  0.30074801    -0.60900
O43         O  0.53192736  0.31372944  0.28651087    -0.51800
C44         C  0.50680339  0.33060404  0.24940344     0.70200
O45         O  0.50548940  0.33192490  0.28305988    -0.46600
C46         C  0.54729377  0.35155840  0.29335760     0.74900
O47         O  0.50927552  0.32559126  0.34873419    -0.58500
O48         O  0.54473053  0.34026723  0.27781633    -0.48600
O49         O  0.52914974  0.32700574  0.35729593    -0.54900
C50         C  0.52075263  0.30220995  0.29236324     0.85100
O51         O  0.51591886  0.32720771  0.24167443    -0.56800
O52         O  0.53708259  0.35067167  0.31142485    -0.60100
In53       In  0.60594175  0.52065753  0.01037340     1.36900
C54         C  0.62157348  0.51859053  0.06340676     0.77600
O55         O  0.58757082  0.50371352  0.04146490    -0.60900
O56         O  0.58537761  0.50563349  0.98434136    -0.51800
C57         C  0.60082351  0.54229430  0.00928588     0.70200
O58         O  0.59770105  0.53388345  0.03578888    -0.46600
C59         C  0.61877604  0.51601062  0.95431909     0.74900
O60         O  0.62375745  0.53043178  0.05183758    -0.58500
O61         O  0.60570358  0.50892910  0.96007537    -0.48600
O62         O  0.61113788  0.50815794  0.04904506    -0.54900
C63         C  0.57985207  0.49896496  0.01352242     0.85100
O64         O  0.60745423  0.54021501  0.98422914    -0.56800
O65         O  0.62526526  0.52635099  0.97561597    -0.60100
In66       In  0.46695679  0.38063761  0.99527189     1.36900
C67         C  0.46805406  0.36480955  0.94161665     0.77600
O68         O  0.48298094  0.40064187  0.96710524    -0.60900
O69         O  0.48337958  0.39960350  0.02495234    -0.51800
C70         C  0.44657228  0.38742028  0.99640180     0.70200
O71         O  0.45119151  0.38500024  0.96748810    -0.46600
C72         C  0.47078292  0.36608534  0.04807240     0.74900
O73         O  0.45760797  0.36033066  0.96286197    -0.58500
O74         O  0.48036969  0.37779846  0.03607676    -0.48600
O75         O  0.47741145  0.37749714  0.94663520    -0.54900
C76         C  0.48881555  0.40684399  0.99646831     0.85100
O77         O  0.45136963  0.38498001  0.02505598    -0.56800
O78         O  0.45878098  0.36199798  0.03420942    -0.60100
In79       In  0.66428831  0.18401246  0.70532973     1.36900
C80         C  0.66435738  0.18060644  0.63319674     0.77600
O81         O  0.64067591  0.17252303  0.70937053    -0.60900
O82         O  0.65144709  0.19481426  0.71242325    -0.51800
C83         C  0.66062183  0.16498313  0.75618223     0.70200
O84         O  0.66093246  0.16272182  0.72253560    -0.46600
C85         C  0.69006759  0.20623655  0.71729445     0.74900
O86         O  0.66551432  0.17246841  0.65573111    -0.58500
O87         O  0.67895841  0.20523329  0.73039909    -0.48600
O88         O  0.66315351  0.19039374  0.64775193    -0.54900
C89         C  0.63972664  0.18346858  0.71316034     0.85100
O90         O  0.66321988  0.17730013  0.76372854    -0.56800
O91         O  0.68796117  0.19557147  0.69917133    -0.60100
In92       In  0.66175502  0.18692169  0.28865343     1.36900
C93         C  0.66515570  0.18344755  0.35941606     0.77600
O94         O  0.68494644  0.19596716  0.27701242    -0.60900
O95         O  0.67673976  0.20987554  0.27710328    -0.51800
C96         C  0.65506326  0.16744217  0.23719893     0.70200
O97         O  0.65510946  0.16484115  0.27073767    -0.46600
C98         C  0.63801390  0.18812402  0.28718346     0.74900
O99         O  0.66547282  0.17548090  0.33507536    -0.58500
O100        O  0.64946203  0.19777940  0.27399653    -0.48600
O101        O  0.66322090  0.19316778  0.34740134    -0.54900
C102        C  0.68745318  0.20851291  0.27375313     0.85100
O103        O  0.65883908  0.18013667  0.22989329    -0.56800
O104        O  0.63877177  0.17789852  0.30068916    -0.60100
In105      In  0.60464870  0.07046884  0.99691915     1.36900
C106        C  0.61963211  0.08698381  0.94140578     0.77600
O107        O  0.58536379  0.06697061  0.96717009    -0.60900
O108        O  0.58434563  0.06471095  0.02500105    -0.51800
C109        C  0.59999559  0.04381146  0.99903025     0.70200
O110        O  0.59986850  0.05005630  0.97024160    -0.46600
C111        C  0.61762931  0.09031146  0.04801631     0.74900
O112        O  0.62437279  0.08104160  0.96205720    -0.58500
O113        O  0.60505872  0.08566531  0.03826724    -0.48600
O114        O  0.60716400  0.08395489  0.94829884    -0.54900
C115        C  0.57808395  0.06449500  0.99581908     0.85100
O116        O  0.60356322  0.05161167  0.02683892    -0.56800
O117        O  0.62343901  0.08406326  0.03332991    -0.60100
In118      In  0.52199272  0.18083653  0.72241291     1.36900
C119        C  0.51730572  0.17679785  0.65091095     0.77600
O120        O  0.51019484  0.19273982  0.71525836    -0.60900
O121        O  0.52977045  0.20278157  0.74325133    -0.51800
C122        C  0.50644507  0.16214649  0.77445004     0.70200
O123        O  0.50700250  0.15865872  0.74204109    -0.46600
C124        C  0.54690343  0.18206330  0.72874237     0.74900
O125        O  0.50780416  0.16997580  0.67429280    -0.58500
O126        O  0.54551564  0.19280249  0.73154873    -0.48600
O127        O  0.52907722  0.18557896  0.66423072    -0.54900
C128        C  0.51959317  0.20379726  0.73056014     0.85100
O129        O  0.51343984  0.17528755  0.77978763    -0.56800
O130        O  0.53550851  0.17066400  0.72392378    -0.60100
In131      In  0.52074375  0.18572201  0.30575388     1.36900
C132        C  0.51618882  0.18290751  0.37750070     0.77600
O133        O  0.53582341  0.17802872  0.31840710    -0.60900
O134        O  0.54192496  0.19430691  0.27880962    -0.51800
C135        C  0.50558515  0.16464808  0.25946272     0.70200
O136        O  0.50467997  0.16303641  0.29358954    -0.46600
C137        C  0.51837289  0.20863198  0.29460401     0.74900
O138        O  0.50653799  0.17614950  0.35453052    -0.58500
O139        O  0.53005471  0.20901097  0.29556394    -0.48600
O140        O  0.52803046  0.19130686  0.36357821    -0.54900
C141        C  0.54513621  0.18635674  0.29633984     0.85100
O142        O  0.51367804  0.17718545  0.24910782    -0.56800
O143        O  0.50780636  0.19643086  0.29831166    -0.60100
In144      In  0.46545403  0.06869985  0.02375119     1.36900
C145        C  0.46732316  0.08493418  0.08018650     0.77600
O146        O  0.48209364  0.06536358  0.04934909    -0.60900
O147        O  0.47978318  0.06357617  0.99178987    -0.51800
C148        C  0.44515491  0.04152699  0.02607822     0.70200
O149        O  0.45135710  0.04847160  0.05414927    -0.46600
C150        C  0.46940408  0.08660241  0.96886931     0.74900
O151        O  0.45598646  0.07801456  0.06247960    -0.58500
O152        O  0.47919714  0.08626918  0.98592371    -0.48600
O153        O  0.47729825  0.08333213  0.06896848    -0.54900
C154        C  0.48649316  0.06332364  0.01949458     0.85100
O155        O  0.44832085  0.04882365  0.99723383    -0.56800
O156        O  0.45718011  0.07775156  0.98036117    -0.60100
In157      In  0.80064835  0.45900614  0.71141112     1.36900
C158        C  0.80287580  0.46517978  0.64066253     0.77600
O159        O  0.81090774  0.44597977  0.70335035    -0.60900
O160        O  0.78942905  0.43544570  0.71972963    -0.51800
C161        C  0.81964569  0.47143937  0.76381651     0.70200
O162        O  0.82282382  0.47351073  0.73039038    -0.46600
C163        C  0.77931553  0.46312574  0.72792777     0.74900
O164        O  0.81050732  0.47417863  0.66421417    -0.58500
O165        O  0.77831598  0.45110692  0.72852219    -0.48600
O166        O  0.79427381  0.45320510  0.65349975    -0.54900
C167        C  0.80005987  0.43441350  0.71128080     0.85100
O168        O  0.80673012  0.46332472  0.77044611    -0.56800
O169        O  0.79140448  0.47313634  0.71953141    -0.60100
In170      In  0.80688595  0.32140763  0.70599607     1.36900
C171        C  0.81055160  0.32098585  0.63462909     0.77600
O172        O  0.79524587  0.29797552  0.69596189    -0.60900
O173        O  0.78559141  0.30648575  0.72981464    -0.51800
C174        C  0.82616080  0.32515475  0.75619484     0.70200
O175        O  0.82897345  0.32756299  0.72273692    -0.46600
C176        C  0.80526883  0.34487674  0.71080971     0.74900
O177        O  0.81766298  0.31843898  0.65743750    -0.58500
O178        O  0.79497035  0.33276591  0.71759654    -0.48600
O179        O  0.80155307  0.32358757  0.64846013    -0.54900
C180        C  0.78458840  0.29574227  0.71430692     0.85100
O181        O  0.81333727  0.32031451  0.76386183    -0.56800
O182        O  0.81649061  0.34498614  0.70256416    -0.60100
In183      In  0.80256045  0.46285493  0.29528789     1.36900
C184        C  0.80450318  0.46637762  0.36715150     0.77600
O185        O  0.79183051  0.47578326  0.28940978    -0.60900
O186        O  0.77930195  0.45349599  0.28625863    -0.51800
C187        C  0.82348339  0.47940185  0.24987347     0.70200
O188        O  0.82517537  0.47936420  0.28388520    -0.46600
C189        C  0.80219345  0.43862845  0.28260458     0.74900
O190        O  0.81160760  0.47639711  0.34521562    -0.58500
O191        O  0.79396767  0.44189397  0.26680926    -0.48600
O192        O  0.79646159  0.45467727  0.35224215    -0.54900
C193        C  0.77964451  0.46518726  0.28622050     0.85100
O194        O  0.81097964  0.47142247  0.23936827    -0.56800
O195        O  0.81070140  0.44786093  0.30443460    -0.60100
In196      In  0.80451703  0.32319917  0.29032034     1.36900
C197        C  0.80759171  0.31969631  0.36118116     0.77600
O198        O  0.81088112  0.34543246  0.30641027    -0.60900
O199        O  0.79651015  0.33636980  0.26271238    -0.51800
C200        C  0.82477001  0.32793534  0.24184951     0.70200
O201        O  0.82726368  0.33404552  0.27225281    -0.46600
C202        C  0.78074397  0.29892100  0.27825586     0.74900
O203        O  0.81525002  0.31869737  0.33697181    -0.58500
O204        O  0.78166814  0.31086103  0.27497878    -0.48600
O205        O  0.79828694  0.32218762  0.34895685    -0.54900
C206        C  0.80335860  0.34698157  0.28289817     0.85100
O207        O  0.81197168  0.31899180  0.23689329    -0.56800
O208        O  0.79212392  0.29939434  0.28706729    -0.60100
In209      In  0.91835257  0.38161476  0.99522224     1.36900
C210        C  0.90048952  0.36774791  0.04968307     0.77600
O211        O  0.92179728  0.40114696  0.02402586    -0.60900
O212        O  0.92254478  0.40143254  0.96616190    -0.51800
C213        C  0.94537557  0.38861678  0.99766074     0.70200
O214        O  0.93782559  0.38557371  0.02585648    -0.46600
C215        C  0.90321272  0.36590423  0.93935810     0.74900
O216        O  0.91030459  0.36539744  0.04102001    -0.58500
O217        O  0.90441985  0.37764938  0.94731949    -0.48600
O218        O  0.89970694  0.37675775  0.02976164    -0.54900
C219        C  0.92338132  0.40803454  0.99502916     0.85100
O220        O  0.93881576  0.38685731  0.96811538    -0.56800
O221        O  0.91001552  0.36209807  0.95985253    -0.60100
In222      In  0.91468354  0.51832818  0.00684557     1.36900
C223        C  0.89441803  0.51183131  0.95775150     0.77600
O224        O  0.91911350  0.50268630  0.97960697    -0.60900
O225        O  0.92085929  0.50442835  0.03732163    -0.51800
C226        C  0.94097260  0.53966822  0.99909255     0.70200
O227        O  0.93347607  0.53288979  0.97222136    -0.46600
C228        C  0.90032562  0.51848954  0.06513129     0.74900
O229        O  0.90347311  0.52451175  0.96485321    -0.58500
O230        O  0.90229225  0.50839117  0.05726794    -0.48600
O231        O  0.89601568  0.50279990  0.97523891    -0.54900
C232        C  0.92167707  0.49835325  0.00900184     0.85100
O233        O  0.93455296  0.53640115  0.02920013    -0.56800
O234        O  0.90605078  0.52887233  0.04336967    -0.60100
In235      In  0.46841104  0.65681107  0.70964285     1.36900
C236        C  0.47585139  0.66019296  0.63966157     0.77600
O237        O  0.45253160  0.63412904  0.69889731    -0.60900
O238        O  0.44719943  0.64509187  0.73760135    -0.51800
C239        C  0.48360495  0.65097996  0.75602007     0.70200
O240        O  0.48359332  0.64910312  0.72206090    -0.46600
C241        C  0.46987924  0.68176301  0.71719040     0.74900
O242        O  0.48486916  0.66498134  0.66494421    -0.58500
O243        O  0.45921724  0.67104830  0.70452992    -0.48600
O244        O  0.46323127  0.65360472  0.65041724    -0.54900
C245        C  0.44345968  0.63367445  0.72087948     0.85100
O246        O  0.47601814  0.65604118  0.76598782    -0.56800
O247        O  0.47963862  0.67960130  0.72744930    -0.60100
In248      In  0.32757401  0.51696776  0.72608282     1.36900
C249        C  0.32556848  0.51410510  0.65389795     0.77600
O250        O  0.30412791  0.50215812  0.73315263    -0.60900
O251        O  0.31209733  0.52407476  0.74010775    -0.51800
C252        C  0.33305093  0.50106047  0.77110600     0.70200
O253        O  0.33317765  0.50004566  0.73686742    -0.46600
C254        C  0.35139166  0.54174575  0.73546322     0.74900
O255        O  0.32483615  0.50456851  0.67483791    -0.58500
O256        O  0.33995310  0.53875142  0.75111027    -0.48600
O257        O  0.32721959  0.52499637  0.67003631    -0.54900
C258        C  0.30140738  0.51186862  0.73957575     0.85100
O259        O  0.32985663  0.51001432  0.78222331    -0.56800
O260        O  0.35060060  0.53202105  0.71539329    -0.60100
In261      In  0.47553368  0.66204914  0.29551430     1.36900
C262        C  0.48043848  0.66597899  0.36693919     0.77600
O263        O  0.48828851  0.68559309  0.28664908    -0.60900
O264        O  0.46610184  0.67545120  0.28023638    -0.51800
C265        C  0.49020407  0.65576570  0.24872797     0.70200
O266        O  0.49126363  0.65516569  0.28285033    -0.46600
C267        C  0.45109520  0.63803530  0.29181378     0.74900
O268        O  0.49020340  0.66914732  0.34406623    -0.58500
O269        O  0.45327709  0.64918436  0.27566871    -0.48600
O270        O  0.46835326  0.66086183  0.35302366    -0.54900
C271        C  0.47768576  0.68690926  0.28024546     0.85100
O272        O  0.48198303  0.66005225  0.23857671    -0.56800
O273        O  0.46155394  0.63910914  0.30910446    -0.60100
In274      In  0.33369818  0.52236923  0.30685949     1.36900
C275        C  0.33119000  0.51963111  0.37924203     0.77600
O276        O  0.35722016  0.53564711  0.31261993    -0.60900
O277        O  0.34612489  0.54557238  0.29291928    -0.51800
C278        C  0.33782836  0.50694547  0.25727470     0.70200
O279        O  0.33845451  0.50523892  0.29117708    -0.46600
C280        C  0.30772578  0.51730642  0.29300129     0.74900
O281        O  0.33281518  0.51112719  0.35933448    -0.58500
O282        O  0.31866315  0.52863788  0.28383889    -0.48600
O283        O  0.33098016  0.52950907  0.36193721    -0.54900
C284        C  0.35787422  0.54690653  0.30165644     0.85100
O285        O  0.33461400  0.51618996  0.24898693    -0.56800
O286        O  0.31011575  0.50823733  0.30769325    -0.60100
In287      In  0.52705348  0.60159590  0.00538648     1.36900
C288        C  0.52256904  0.61547446  0.95167009     0.77600
O289        O  0.51210473  0.58039832  0.98046295    -0.60900
O290        O  0.50919546  0.58405554  0.03576110    -0.51800
C291        C  0.54735292  0.59472194  0.00520924     0.70200
O292        O  0.54420534  0.59919222  0.97699066    -0.46600
C293        C  0.52721655  0.61699142  0.06168501     0.74900
O294        O  0.53432655  0.62060167  0.96763203    -0.58500
O295        O  0.51649705  0.60579729  0.05150130    -0.48600
O296        O  0.51364544  0.60322092  0.96202268    -0.54900
C297        C  0.50493839  0.57555072  0.00937007     0.85100
O298        O  0.54087101  0.59471030  0.03352938    -0.56800
O299        O  0.53820116  0.62056408  0.04298063    -0.60100
In300      In  0.38802676  0.46249836  0.01700742     1.36900
C301        C  0.37364524  0.46543633  0.07151922     0.77600
O302        O  0.40704323  0.47619529  0.05121282    -0.60900
O303        O  0.40822736  0.47972357  0.99378973    -0.51800
C304        C  0.39438455  0.44181695  0.01212226     0.70200
O305        O  0.39020913  0.44461040  0.04131052    -0.46600
C306        C  0.37348201  0.46583421  0.96291058     0.74900
O307        O  0.36959612  0.45359243  0.05664618    -0.58500
O308        O  0.38586538  0.47495820  0.97158629    -0.48600
O309        O  0.38493929  0.47543419  0.05886350    -0.54900
C310        C  0.41431826  0.48339783  0.02432052     0.85100
O311        O  0.39398539  0.44868264  0.98492014    -0.56800
O312        O  0.36863773  0.45439563  0.98068261    -0.60100
In313      In  0.32849248  0.79934150  0.71157813     1.36900
C314        C  0.32675225  0.80313631  0.64013673     0.77600
O315        O  0.35192722  0.80858227  0.70851453    -0.60900
O316        O  0.33974715  0.78831312  0.73304963    -0.51800
C317        C  0.33314240  0.81890505  0.76166599     0.70200
O318        O  0.33469860  0.82154403  0.72787802    -0.46600
C319        C  0.30344095  0.77610939  0.71912734     0.74900
O320        O  0.32193824  0.80798044  0.66375828    -0.58500
O321        O  0.31455382  0.77580944  0.71227884    -0.48600
O322        O  0.33272479  0.79681355  0.65318470    -0.54900
C323        C  0.35180282  0.79810597  0.72355173     0.85100
O324        O  0.32860621  0.80609160  0.76962068    -0.56800
O325        O  0.30518595  0.78833187  0.72338240    -0.60100
In326      In  0.46760730  0.79737937  0.70757093     1.36900
C327        C  0.46938915  0.80058934  0.63508382     0.77600
O328        O  0.47834020  0.78450572  0.69876812    -0.60900
O329        O  0.46115158  0.77652369  0.73529905    -0.51800
C330        C  0.48517115  0.81653960  0.75555081     0.70200
O331        O  0.48841017  0.81669651  0.72243949    -0.46600
C332        C  0.44366555  0.79803171  0.71633754     0.74900
O333        O  0.47782564  0.81005820  0.65660397    -0.58500
O334        O  0.44422937  0.78679733  0.71852371    -0.48600
O335        O  0.46010684  0.78954099  0.65077591    -0.54900
C336        C  0.47016146  0.77445357  0.71937522     0.85100
O337        O  0.47335839  0.80621454  0.76431225    -0.56800
O338        O  0.45536437  0.80888335  0.70955968    -0.60100
In339      In  0.32278746  0.79087988  0.29657364     1.36900
C340        C  0.32032418  0.79407154  0.36765293     0.77600
O341        O  0.29926114  0.78099891  0.29088556    -0.60900
O342        O  0.30829601  0.76777983  0.28652158    -0.51800
C343        C  0.32946014  0.81123921  0.24692185     0.70200
O344        O  0.33163416  0.81365835  0.28057848    -0.46600
C345        C  0.34664787  0.79031859  0.28827876     0.74900
O346        O  0.31770396  0.80074436  0.34357074    -0.58500
O347        O  0.33534628  0.78151968  0.27266806    -0.48600
O348        O  0.32402273  0.78568153  0.35510298    -0.54900
C349        C  0.29723613  0.76866646  0.28671059     0.85100
O350        O  0.32294632  0.79828631  0.23901498    -0.56800
O351        O  0.34548092  0.79888275  0.30887580    -0.60100
In352      In  0.46599399  0.79676748  0.28809832     1.36900
C353        C  0.46912157  0.79966749  0.36016825     0.77600
O354        O  0.45246790  0.80659241  0.29721686    -0.60900
O355        O  0.44336843  0.78677811  0.27038187    -0.51800
C356        C  0.48244395  0.81624390  0.23901314     0.70200
O357        O  0.48605560  0.81635076  0.27169407    -0.46600
C358        C  0.46944371  0.77454702  0.27638934     0.74900
O359        O  0.47708243  0.80926101  0.33812541    -0.58500
O360        O  0.45808521  0.77440052  0.26975074    -0.48600
O361        O  0.45960485  0.78861937  0.34522668    -0.54900
C362        C  0.44162386  0.79653474  0.28291234     0.85100
O363        O  0.47053991  0.80590165  0.23114015    -0.56800
O364        O  0.47918798  0.78622504  0.28791456    -0.60100
In365      In  0.39178934  0.90905707  0.01185797     1.36900
C366        C  0.37524133  0.89065309  0.96136639     0.77600
O367        O  0.41025908  0.91236165  0.97804805    -0.60900
O368        O  0.41258959  0.91413309  0.03571955    -0.51800
C369        C  0.39655470  0.93573116  0.01160061     0.70200
O370        O  0.39281661  0.92805145  0.98354746    -0.46600
C371        C  0.37851924  0.89163572  0.06768740     0.74900
O372        O  0.37146619  0.89804689  0.97934305    -0.58500
O373        O  0.38992979  0.89340874  0.05470249    -0.48600
O374        O  0.38761455  0.89330134  0.96798751    -0.54900
C375        C  0.41807651  0.91428740  0.00530109     0.85100
O376        O  0.39720025  0.92950492  0.03989638    -0.56800
O377        O  0.37428857  0.89941357  0.05361236    -0.60100
In378      In  0.53115744  0.90994296  0.98896081     1.36900
C379        C  0.52443421  0.89144049  0.04397573     0.77600
O380        O  0.51518589  0.91394981  0.01615560    -0.60900
O381        O  0.51466727  0.91221918  0.95852134    -0.51800
C382        C  0.55133168  0.93730736  0.98821639     0.70200
O383        O  0.54665854  0.93032145  0.01734526    -0.46600
C384        C  0.53225643  0.89378783  0.93656823     0.74900
O385        O  0.53679913  0.90182195  0.03983127    -0.58500
O386        O  0.52390909  0.89854683  0.93632157    -0.48600
O387        O  0.51592330  0.89056584  0.01957913    -0.54900
C388        C  0.50925001  0.91404799  0.98676493     0.85100
O389        O  0.54689334  0.92996846  0.95974022    -0.56800
O390        O  0.54098925  0.89808687  0.96267398    -0.60100
In391      In  0.19055635  0.51973110  0.72179374     1.36900
C392        C  0.18940252  0.51500902  0.65059747     0.77600
O393        O  0.18128332  0.53376756  0.71243536    -0.60900
O394        O  0.20153731  0.54277434  0.73662482    -0.51800
C395        C  0.17016988  0.50490141  0.76993671     0.70200
O396        O  0.16837454  0.50321388  0.73598484    -0.46600
C397        C  0.21192578  0.51550019  0.73694407     0.74900
O398        O  0.17992675  0.50662775  0.67224041    -0.58500
O399        O  0.21244165  0.52715094  0.74191309    -0.48600
O400        O  0.19928887  0.52585511  0.66527673    -0.54900
C401        C  0.19170450  0.54463887  0.72542307     0.85100
O402        O  0.18256476  0.51384152  0.77928878    -0.56800
O403        O  0.20012098  0.50567750  0.72622145    -0.60100
In404      In  0.19213122  0.51561885  0.30525857     1.36900
C405        C  0.19157142  0.53974562  0.30119409     0.77600
O406        O  0.18410990  0.50999390  0.24806007    -0.60900
O407        O  0.17051696  0.49779287  0.29123081    -0.51800
C408        C  0.21311172  0.51086952  0.29004441     0.70200
O409        O  0.21374251  0.52252182  0.28336777    -0.46600
C410        C  0.19216808  0.51309527  0.37750756     0.74900
O411        O  0.20206294  0.53878111  0.29096003    -0.58500
O412        O  0.18178270  0.50484252  0.35806137    -0.48600
O413        O  0.18141610  0.52833995  0.31290372    -0.54900
C414        C  0.17201733  0.50024131  0.25736285     0.85100
O415        O  0.20140498  0.50137911  0.30249810    -0.56800
O416        O  0.20250520  0.52241824  0.35969350    -0.60100
In417      In  0.07773071  0.46219155  0.02010456     1.36900
C418        C  0.09606022  0.46806251  0.96610302     0.77600
O419        O  0.07173434  0.47724394  0.99653634    -0.60900
O420        O  0.07319939  0.47635827  0.05442749    -0.51800
C421        C  0.05120764  0.44097892  0.01675254     0.70200
O422        O  0.05802510  0.44779865  0.98898515    -0.46600
C423        C  0.09434465  0.46337287  0.07413788     0.74900
O424        O  0.08900808  0.45578218  0.97947110    -0.58500
O425        O  0.09243527  0.47348642  0.06569294    -0.48600
O426        O  0.09327721  0.47694872  0.97961271    -0.54900
C427        C  0.07070651  0.48186943  0.02717724     0.85100
O428        O  0.05848614  0.44400288  0.04539950    -0.56800
O429        O  0.08756437  0.45237058  0.05507459    -0.60100
In430      In  0.18820899  0.65917574  0.71226925     1.36900
C431        C  0.18402367  0.66090318  0.64126304     0.77600
O432        O  0.19867702  0.68233553  0.72692005    -0.60900
O433        O  0.21164483  0.67363497  0.71494117    -0.51800
C434        C  0.16834199  0.65271313  0.76233225     0.70200
O435        O  0.16645562  0.65416435  0.72900429    -0.46600
C436        C  0.18959975  0.63570644  0.71875679     0.74900
O437        O  0.17881526  0.66522774  0.66518741    -0.58500
O438        O  0.19932064  0.64757105  0.72961609    -0.48600
O439        O  0.19109307  0.65566276  0.65382645    -0.54900
C440        C  0.21104195  0.68448148  0.72319871     0.85100
O441        O  0.18058672  0.65520984  0.77030581    -0.56800
O442        O  0.17904162  0.63587234  0.70547797    -0.60100
In443      In  0.18256863  0.65162744  0.29834353     1.36900
C444        C  0.17973870  0.65426672  0.36936360     0.77600
O445        O  0.17416584  0.62846869  0.30838975    -0.60900
O446        O  0.19396830  0.64016931  0.28197718    -0.51800
C447        C  0.16233791  0.64625211  0.24932923     0.70200
O448        O  0.15982623  0.64282688  0.28243724    -0.46600
C449        C  0.20549417  0.67665455  0.28676591     0.74900
O450        O  0.17292558  0.65685664  0.34573968    -0.58500
O451        O  0.20475933  0.66510484  0.27870692    -0.48600
O452        O  0.18805657  0.65056531  0.35651242    -0.54900
C453        C  0.18470230  0.62842280  0.29473530     0.85100
O454        O  0.17527373  0.65284311  0.24142669    -0.56800
O455        O  0.19419661  0.67546599  0.29921399    -0.60100
In456      In  0.07158619  0.59649665  0.99904689     1.36900
C457        C  0.08610384  0.60834388  0.05991514     0.77600
O458        O  0.05732831  0.57374965  0.01532972    -0.60900
O459        O  0.07709029  0.57959310  0.99129381    -0.51800
C460        C  0.04596437  0.59283606  0.98686584     0.70200
O461        O  0.05135250  0.59483854  0.01826099    -0.46600
C462        C  0.08946143  0.61141336  0.94568423     0.74900
O463        O  0.07896089  0.61292432  0.04390163    -0.58500
O464        O  0.08226954  0.59811531  0.94569438    -0.48600
O465        O  0.08543813  0.59765589  0.04519487    -0.54900
C466        C  0.06580226  0.56984709  0.00483709     0.85100
O467        O  0.05417846  0.59389668  0.96136629    -0.56800
O468        O  0.08686153  0.61719522  0.97197646    -0.60100
C469        C  0.09509939  0.61504899  0.09232569     0.01300
C470        C  0.10436914  0.62983089  0.09333748     0.04200
C471        C  0.11507683  0.63570589  0.11996373    -0.11900
C472        C  0.11616641  0.62696077  0.14660396     0.23500
C473        C  0.10615031  0.61243063  0.14760820    -0.12500
C474        C  0.09573502  0.60645178  0.12038917     0.04900
C475        C  0.12834127  0.63278230  0.17211735     0.27300
C476        C  0.14028073  0.63165413  0.16346338    -0.13200
C477        C  0.15153357  0.63632272  0.18834706     0.05400
C478        C  0.15099468  0.64235277  0.22196473    -0.09100
C479        C  0.13917011  0.64384551  0.23009307     0.06200
C480        C  0.12782662  0.63894415  0.20534592    -0.13500
Br481      Br  0.10708817  0.60065978  0.18571993    -0.05600
Br482      Br  0.10308494  0.64208715  0.05731865     0.00100
Br483      Br  0.16713561  0.63340448  0.17706390     0.00500
Br484      Br  0.11138063  0.64033667  0.21711212    -0.03900
Br485      Br  0.08223528  0.58644728  0.12212580     0.00600
Br486      Br  0.12883430  0.65561378  0.11878972    -0.03200
Br487      Br  0.14096902  0.62329696  0.11768644    -0.04100
Br488      Br  0.13863169  0.65306934  0.27443301    -0.00100
C489        C  0.17820995  0.65544425  0.40897871     0.01300
C490        C  0.17610092  0.64424000  0.43239629     0.04200
C491        C  0.17570894  0.64572033  0.47040043    -0.11900
C492        C  0.17756977  0.65842620  0.48517515     0.23500
C493        C  0.17934241  0.66948817  0.46187127    -0.12500
C494        C  0.17961437  0.66799691  0.42377906     0.04900
C495        C  0.17916989  0.66060167  0.52515578     0.27300
C496        C  0.16726710  0.65619256  0.54775560    -0.13200
C497        C  0.16880278  0.65676672  0.58602692     0.05400
C498        C  0.18230519  0.66190742  0.60159246    -0.09100
C499        C  0.19427783  0.66708617  0.57875940     0.06200
C500        C  0.19268977  0.66631743  0.54067389    -0.13500
Br501      Br  0.18217618  0.68694082  0.48247699    -0.05600
Br502      Br  0.17370946  0.62678898  0.41262993     0.00100
Br503      Br  0.15228464  0.64950950  0.61674451     0.00500
Br504      Br  0.20900468  0.67266000  0.50949504    -0.03900
Br505      Br  0.18320456  0.68366972  0.39225108     0.00600
Br506      Br  0.17319892  0.63056232  0.50255664    -0.03200
Br507      Br  0.14887611  0.64894385  0.52599761    -0.04100
Br508      Br  0.21297966  0.67554561  0.59955230    -0.00100
C509        C  0.15690494  0.64777312  0.78955356     0.01300
C510        C  0.15277528  0.63508803  0.80887325     0.04200
C511        C  0.14149028  0.62995116  0.83377547    -0.11900
C512        C  0.13435463  0.63751354  0.83965980     0.23500
C513        C  0.13845868  0.65017972  0.82041004    -0.12500
C514        C  0.14970124  0.65529374  0.79526576     0.04900
C515        C  0.12251410  0.63202572  0.86614253     0.27300
C516        C  0.10875615  0.62213285  0.85484806    -0.13200
C517        C  0.09775371  0.61587997  0.88062868     0.05400
C518        C  0.10051723  0.61937882  0.91796635    -0.09100
C519        C  0.11428609  0.62959654  0.92902428     0.06200
C520        C  0.12519147  0.63603511  0.90304231    -0.13500
Br521      Br  0.12855273  0.66038705  0.82854840    -0.05600
Br522      Br  0.16202010  0.62426103  0.79977657     0.00100
Br523      Br  0.07888010  0.60262604  0.86450860     0.00500
Br524      Br  0.14399857  0.65003915  0.91795450    -0.03900
Br525      Br  0.15552265  0.67281627  0.76956249     0.00600
Br526      Br  0.13554123  0.61235695  0.85936199    -0.03200
Br527      Br  0.10517456  0.61692435  0.80404166    -0.04100
Br528      Br  0.11875580  0.63382272  0.98003262    -0.00100
C529        C  0.06309850  0.55521395  0.00876132     0.01300
C530        C  0.06778807  0.54947211  0.98125714     0.04200
C531        C  0.06729862  0.53652923  0.98715163    -0.11900
C532        C  0.06176808  0.52906336  0.02000668     0.23500
C533        C  0.05619368  0.53421542  0.04644356    -0.12500
C534        C  0.05687728  0.54730992  0.04099472     0.04900
C535        C  0.06279200  0.51630118  0.02736805     0.27300
C536        C  0.05248220  0.50310499  0.01364324    -0.13200
C537        C  0.05480572  0.49156826  0.01487042     0.05400
C538        C  0.06731524  0.49321330  0.03044630    -0.09100
C539        C  0.07717351  0.50615728  0.04637543     0.06200
C540        C  0.07492689  0.51772437  0.04472129    -0.13500
Br541      Br  0.04822318  0.52350997  0.09074887    -0.05600
Br542      Br  0.07457367  0.55901072  0.93484862     0.00100
Br543      Br  0.04094823  0.47354598  0.99498592     0.00500
Br544      Br  0.08884592  0.53577580  0.06431742    -0.03900
Br545      Br  0.05014981  0.55459845  0.07917585     0.00600
Br546      Br  0.07479467  0.52923511  0.95087838    -0.03200
Br547      Br  0.03547648  0.50106959  0.99210925    -0.04100
Br548      Br  0.09438642  0.50846385  0.06741027    -0.00100
C549        C  0.19116730  0.55311799  0.30001965     0.01300
C550        C  0.19643188  0.56220837  0.26930461     0.04200
C551        C  0.19579793  0.57477212  0.26821459    -0.11900
C552        C  0.18993338  0.57833174  0.29766766     0.23500
C553        C  0.18489692  0.56946129  0.32853498    -0.12500
C554        C  0.18535533  0.55682139  0.32964321     0.04900
C555        C  0.18877178  0.59127897  0.29596920     0.27300
C556        C  0.19996112  0.60424622  0.30833279    -0.13200
C557        C  0.19866716  0.61643336  0.30781687     0.05400
C558        C  0.18620002  0.61570865  0.29447397    -0.09100
C559        C  0.17503135  0.60270000  0.28188463     0.06200
C560        C  0.17631392  0.59050913  0.28278371    -0.13500
Br561      Br  0.17751645  0.57483463  0.36952776    -0.05600
Br562      Br  0.20369046  0.55717970  0.22744337     0.00100
Br563      Br  0.21364458  0.63382165  0.32786448     0.00500
Br564      Br  0.16098509  0.57264183  0.26622852    -0.03900
Br565      Br  0.17828719  0.54493990  0.37255400     0.00600
Br566      Br  0.20286645  0.58718500  0.22630324    -0.03200
Br567      Br  0.21692882  0.60512925  0.32664328    -0.04100
Br568      Br  0.15814641  0.60160629  0.26212702    -0.00100
C569        C  0.16034030  0.49286565  0.23088261     0.01300
C570        C  0.15820105  0.50077977  0.20349096     0.04200
C571        C  0.14687832  0.49401500  0.17901093    -0.11900
C572        C  0.13741642  0.47939389  0.18212078     0.23500
C573        C  0.13935234  0.47146736  0.20955631    -0.12500
C574        C  0.15084566  0.47814612  0.23378828     0.04900
C575        C  0.12518551  0.47265258  0.15702522     0.27300
C576        C  0.11290530  0.47324487  0.16503083    -0.13200
C577        C  0.10229112  0.46920156  0.13855222     0.05400
C578        C  0.10400050  0.46471417  0.10386104    -0.09100
C579        C  0.11589626  0.46330893  0.09659737     0.06200
C580        C  0.12644839  0.46720330  0.12331656    -0.13500
Br581      Br  0.12600794  0.45152195  0.21416363    -0.05600
Br582      Br  0.16987993  0.52112844  0.20100284     0.00100
Br583      Br  0.08543897  0.46998483  0.14957028     0.00500
Br584      Br  0.14309587  0.46597619  0.11310763    -0.03900
Br585      Br  0.15361435  0.46693821  0.27021790     0.00600
Br586      Br  0.14397658  0.50486084  0.14164631    -0.03200
Br587      Br  0.11109417  0.48045926  0.21149984    -0.04100
Br588      Br  0.11847489  0.45746950  0.04892430    -0.00100
C589        C  0.18911226  0.51237253  0.61118366     0.01300
C590        C  0.17770492  0.51074343  0.58970515     0.04200
C591        C  0.17807429  0.50938910  0.55161770    -0.11900
C592        C  0.18989502  0.50981138  0.53503356     0.23500
C593        C  0.20095833  0.51073420  0.55664253    -0.12500
C594        C  0.20056183  0.51199669  0.59471181     0.04900
C595        C  0.19119349  0.51048844  0.49479041     0.27300
C596        C  0.18509334  0.49803301  0.47400755    -0.13200
C597        C  0.18567075  0.49882080  0.43561824     0.05400
C598        C  0.19221991  0.51216404  0.41789279    -0.09100
C599        C  0.19873893  0.52465258  0.43911290     0.06200
C600        C  0.19831776  0.52376457  0.47741587    -0.13500
Br601      Br  0.21674735  0.51054401  0.53380292    -0.05600
Br602      Br  0.16205982  0.51138483  0.61201934     0.00100
Br603      Br  0.17811327  0.48154081  0.40789684     0.00500
Br604      Br  0.20745507  0.54076506  0.50652238    -0.03900
Br605      Br  0.21555494  0.51286512  0.62434516     0.00600
Br606      Br  0.16260676  0.50734903  0.52184649    -0.03200
Br607      Br  0.17605670  0.47993414  0.49857079    -0.04100
Br608      Br  0.20769610  0.54318732  0.41663934    -0.00100
C609        C  0.15860623  0.49740954  0.79662076     0.01300
C610        C  0.16075805  0.49134722  0.82837183     0.04200
C611        C  0.15007982  0.48509701  0.85493494    -0.11900
C612        C  0.13749784  0.48549239  0.85076858     0.23500
C613        C  0.13523757  0.49139670  0.81902801    -0.12500
C614        C  0.14557788  0.49696343  0.79147116     0.04900
C615        C  0.12706986  0.48061526  0.88089025     0.27300
C616        C  0.11467266  0.46732403  0.87919334    -0.13200
C617        C  0.10450905  0.46307098  0.90716265     0.05400
C618        C  0.10689918  0.47201789  0.93734740    -0.09100
C619        C  0.11957520  0.48519074  0.93936492     0.06200
C620        C  0.12948784  0.48954903  0.91089249    -0.13500
Br621      Br  0.11825899  0.49255740  0.81440191    -0.05600
Br622      Br  0.17818985  0.49131740  0.83559037     0.00100
Br623      Br  0.08696388  0.44545298  0.90242653     0.00500
Br624      Br  0.14630339  0.50798775  0.91236260    -0.03900
Br625      Br  0.14196658  0.50462370  0.74780619     0.00600
Br626      Br  0.15271664  0.47620899  0.89757037    -0.03200
Br627      Br  0.11155366  0.45515395  0.83794666    -0.04100
Br628      Br  0.12385300  0.49722781  0.98163799    -0.00100
C629        C  0.19059439  0.62269433  0.72064683     0.01300
C630        C  0.18641319  0.61345653  0.69038008     0.04200
C631        C  0.18728615  0.60104994  0.69210107    -0.11900
C632        C  0.19219612  0.59772458  0.72404485     0.23500
C633        C  0.19664149  0.60701572  0.75395516    -0.12500
C634        C  0.19588041  0.61949684  0.75232015     0.04900
C635        C  0.19248678  0.58431990  0.72623808     0.27300
C636        C  0.18098829  0.57220680  0.74167183    -0.13200
C637        C  0.18106540  0.55937898  0.74292903     0.05400
C638        C  0.19231877  0.55843860  0.72712508    -0.09100
C639        C  0.20392640  0.57063594  0.71210067     0.06200
C640        C  0.20409443  0.58360726  0.71222036    -0.13500
Br641      Br  0.20381795  0.60255122  0.79708565    -0.05600
Br642      Br  0.18016710  0.61799800  0.64556663     0.00100
Br643      Br  0.16619349  0.54337574  0.76846245     0.00500
Br644      Br  0.22009572  0.60043602  0.69276634    -0.03900
Br645      Br  0.20155159  0.63177378  0.79431297     0.00600
Br646      Br  0.18198213  0.58862183  0.65046267    -0.03200
Br647      Br  0.16501990  0.57317955  0.76048223    -0.04100
Br648      Br  0.21925473  0.56950494  0.68946285    -0.00100
C649        C  0.43227101  0.91591574  0.00198923     0.01300
C650        C  0.43607136  0.90786945  0.02474791     0.04200
C651        C  0.44916486  0.90861687  0.02002870    -0.11900
C652        C  0.45864097  0.91760502  0.99318255     0.23500
C653        C  0.45504939  0.92586074  0.97096155    -0.12500
C654        C  0.44182703  0.92492973  0.97508053     0.04900
C655        C  0.47221717  0.91796932  0.98800291     0.27300
C656        C  0.48403791  0.92722550  0.00892358    -0.13200
C657        C  0.49637424  0.92628314  0.00757978     0.05400
C658        C  0.49680344  0.91589156  0.98568347    -0.09100
C659        C  0.48508463  0.90695080  0.96369930     0.06200
C660        C  0.47291037  0.90818790  0.96445331    -0.13500
Br661      Br  0.46827786  0.93831514  0.93473675    -0.05600
Br662      Br  0.42311217  0.89506058  0.06102415     0.00100
Br663      Br  0.51272678  0.93947108  0.03525142     0.00500
Br664      Br  0.45694569  0.89624398  0.93398977    -0.03900
Br665      Br  0.43709981  0.93635418  0.94443237     0.00600
Br666      Br  0.45402819  0.89696237  0.04953918    -0.03200
Br667      Br  0.48314499  0.94100906  0.03986032    -0.04100
Br668      Br  0.48500496  0.89208801  0.93503002    -0.00100
C669        C  0.51995525  0.88110776  0.07485282     0.01300
C670        C  0.50619710  0.87540258  0.08979960     0.04200
C671        C  0.50153169  0.86500910  0.11738823    -0.11900
C672        C  0.51062043  0.86050780  0.13135237     0.23500
C673        C  0.52444645  0.86641733  0.11752118    -0.12500
C674        C  0.52904191  0.87648041  0.08890542     0.04900
C675        C  0.50528807  0.84926382  0.15995985     0.27300
C676        C  0.50474018  0.85271592  0.19672890    -0.13200
C677        C  0.49745634  0.84193476  0.22277881     0.05400
C678        C  0.49117615  0.82758020  0.21246123    -0.09100
C679        C  0.49265479  0.82417368  0.17617049     0.06200
C680        C  0.49939372  0.83497350  0.14984396    -0.13500
Br681      Br  0.53698539  0.86055614  0.13787508    -0.05600
Br682      Br  0.49360254  0.88200686  0.07407328     0.00100
Br683      Br  0.49506411  0.84699841  0.27169958     0.00500
Br684      Br  0.49998761  0.83023169  0.09942863    -0.03900
Br685      Br  0.54739909  0.88296393  0.06751692     0.00600
Br686      Br  0.48247719  0.85665189  0.13602817    -0.03200
Br687      Br  0.51351607  0.87229412  0.21093990    -0.04100
Br688      Br  0.48590781  0.80476170  0.16264765    -0.00100
C689        C  0.37033688  0.88060858  0.09528833     0.01300
C690        C  0.37673726  0.87977770  0.12797502     0.04200
C691        C  0.36921697  0.86840114  0.15233501    -0.11900
C692        C  0.35521664  0.85795004  0.14443401     0.23500
C693        C  0.34870098  0.85897689  0.11231584    -0.12500
C694        C  0.35630806  0.87012629  0.08748316     0.04900
C695        C  0.34760217  0.84557803  0.16923388     0.27300
C696        C  0.34791637  0.83305998  0.16240669    -0.13200
C697        C  0.34147290  0.82159437  0.18698757     0.05400
C698        C  0.33483705  0.82268457  0.21903604    -0.09100
C699        C  0.33435406  0.83520833  0.22541735     0.06200
C700        C  0.34056425  0.84652116  0.20030713    -0.13500
Br701      Br  0.32941066  0.84488965  0.10213216    -0.05600
Br702      Br  0.39569068  0.89432132  0.13983396     0.00100
Br703      Br  0.34283408  0.80490739  0.17752034     0.00500
Br704      Br  0.33960437  0.86347015  0.20836045    -0.03900
Br705      Br  0.34788821  0.87023668  0.04119728     0.00600
Br706      Br  0.37810518  0.86685119  0.19630643    -0.03200
Br707      Br  0.35769164  0.83190974  0.11980064    -0.04100
Br708      Br  0.32504874  0.83696449  0.26820478    -0.00100
C709        C  0.42788511  0.79605892  0.28169587     0.01300
C710        C  0.42217789  0.79830369  0.31387090     0.04200
C711        C  0.40899011  0.79762807  0.31291279    -0.11900
C712        C  0.40130104  0.79438952  0.28004048     0.23500
C713        C  0.40692058  0.79202005  0.24800040    -0.12500
C714        C  0.42024849  0.79299846  0.24870181     0.04900
C715        C  0.38713971  0.79313317  0.27948108     0.27300
C716        C  0.37496078  0.77987077  0.28522345    -0.13200
C717        C  0.36155218  0.77872253  0.28624929     0.05400
C718        C  0.36035119  0.79095875  0.28273086    -0.09100
C719        C  0.37252626  0.80414751  0.27550184     0.06200
C720        C  0.38586226  0.80519742  0.27367491    -0.13500
Br721      Br  0.39619523  0.78725379  0.20330120    -0.05600
Br722      Br  0.43189978  0.80130097  0.35991661     0.00100
Br723      Br  0.34500246  0.76044171  0.29376756     0.00500
Br724      Br  0.40243980  0.82316438  0.26323834    -0.03900
Br725      Br  0.42826060  0.79072229  0.20405656     0.00600
Br726      Br  0.40125470  0.80085526  0.35679225    -0.03200
Br727      Br  0.37681220  0.76336568  0.29259216    -0.04100
Br728      Br  0.37092233  0.82074247  0.26633696    -0.00100
C729        C  0.28304945  0.75613834  0.28298053     0.01300
C730        C  0.27294824  0.75253169  0.31099905     0.04200
C731        C  0.25998371  0.73978854  0.30910663    -0.11900
C732        C  0.25702354  0.73070728  0.27908526     0.23500
C733        C  0.26684882  0.73458927  0.25036601    -0.12500
C734        C  0.27984288  0.74729884  0.25230773     0.04900
C735        C  0.24392852  0.71671234  0.27898526     0.27300
C736        C  0.24399811  0.70502507  0.29508383    -0.13200
C737        C  0.23145170  0.69189914  0.29728244     0.05400
C738        C  0.21873021  0.69038790  0.28321797    -0.09100
C739        C  0.21874102  0.70209006  0.26661378     0.06200
C740        C  0.23134089  0.71521951  0.26446150    -0.13500
Br741      Br  0.26257520  0.72230096  0.20884937    -0.05600
Br742      Br  0.27709380  0.76457457  0.35303066     0.00100
Br743      Br  0.23169175  0.67633972  0.32192646     0.00500
Br744      Br  0.23147315  0.73126879  0.24184650    -0.03900
Br745      Br  0.29310951  0.75286666  0.21243608     0.00600
Br746      Br  0.24640691  0.73439297  0.34825826    -0.03200
Br747      Br  0.26133520  0.70720187  0.31493888    -0.04100
Br748      Br  0.20166822  0.70009968  0.24561381    -0.00100
C749        C  0.47074073  0.80119105  0.40028010     0.01300
C750        C  0.47010855  0.79008348  0.42160871     0.04200
C751        C  0.47085457  0.79114626  0.45991804    -0.11900
C752        C  0.47228225  0.80330937  0.47714911     0.23500
C753        C  0.47336249  0.81459042  0.45590372    -0.12500
C754        C  0.47258148  0.81355223  0.41754780     0.04900
C755        C  0.47182037  0.80380015  0.51764908     0.27300
C756        C  0.45877271  0.79884208  0.53542449    -0.13200
C757        C  0.45796838  0.79789343  0.57378650     0.05400
C758        C  0.47031890  0.80218895  0.59473345    -0.09100
C759        C  0.48348530  0.80768079  0.57679445     0.06200
C760        C  0.48421150  0.80851529  0.53835916    -0.13500
Br761      Br  0.47555851  0.83130756  0.47963623    -0.05600
Br762      Br  0.46876774  0.77357939  0.39845644     0.00100
Br763      Br  0.43986636  0.79093064  0.59718613     0.00500
Br764      Br  0.50214485  0.81599847  0.51376912    -0.03900
Br765      Br  0.47314850  0.82876946  0.38913850     0.00600
Br766      Br  0.46974554  0.77583923  0.48901136    -0.03200
Br767      Br  0.44199610  0.79342133  0.50683858    -0.04100
Br768      Br  0.50047676  0.81308359  0.60435297    -0.00100
C769        C  0.49408247  0.82786668  0.78172729     0.01300
C770        C  0.50846492  0.83210521  0.78658379     0.04200
C771        C  0.51678895  0.84295961  0.81147433    -0.11900
C772        C  0.51076848  0.84957251  0.83169001     0.23500
C773        C  0.49645550  0.84545718  0.82658624    -0.12500
C774        C  0.48815030  0.83468517  0.80165505     0.04900
C775        C  0.51936982  0.86107429  0.85797003     0.27300
C776        C  0.51932276  0.85793098  0.89536993    -0.13200
C777        C  0.52514185  0.86893409  0.92118586     0.05400
C778        C  0.53073490  0.88308520  0.90968324    -0.09100
C779        C  0.53169554  0.88626542  0.87208987     0.06200
C780        C  0.52616961  0.87527879  0.84624910    -0.13500
Br781      Br  0.48832653  0.85486925  0.85340597    -0.05600
Br782      Br  0.51666135  0.82270846  0.76027371     0.00100
Br783      Br  0.52401597  0.86448732  0.97261491     0.00500
Br784      Br  0.52699794  0.87956292  0.79487561    -0.03900
Br785      Br  0.46884995  0.82997358  0.79323891     0.00600
Br786      Br  0.53647745  0.84894018  0.81782557    -0.03200
Br787      Br  0.51018625  0.83848998  0.91136304    -0.04100
Br788      Br  0.54001456  0.90567557  0.85622280    -0.00100
C789        C  0.32534727  0.80432380  0.60029335     0.01300
C790        C  0.33715415  0.80835584  0.57748568     0.04200
C791        C  0.33548248  0.80715448  0.53936986    -0.11900
C792        C  0.32211356  0.80252590  0.52372525     0.23500
C793        C  0.31050790  0.79950564  0.54628139    -0.12500
C794        C  0.31203299  0.80012125  0.58456573     0.04900
C795        C  0.32022848  0.80019971  0.48369434     0.27300
C796        C  0.32449038  0.81174979  0.45976019    -0.13200
C797        C  0.32451233  0.80980461  0.42177774     0.05400
C798        C  0.31948703  0.79609358  0.40741892    -0.09100
C799        C  0.31430030  0.78438469  0.43154045     0.06200
C800        C  0.31496734  0.78649595  0.46954301    -0.13500
Br801      Br  0.29247642  0.79414770  0.52440868    -0.05600
Br802      Br  0.35575012  0.81590994  0.59838399     0.00100
Br803      Br  0.33271663  0.82623378  0.39024984     0.00500
Br804      Br  0.30901072  0.77064132  0.50247154    -0.03900
Br805      Br  0.29560544  0.79401550  0.61510034     0.00600
Br806      Br  0.35141760  0.81130006  0.50856060    -0.03200
Br807      Br  0.33051088  0.83028058  0.47939632    -0.04100
Br808      Br  0.30585332  0.76531708  0.41301581    -0.00100
C809        C  0.33699400  0.82997786  0.78990817     0.01300
C810        C  0.34994470  0.84286514  0.78738957     0.04200
C811        C  0.35449911  0.85254694  0.81648791    -0.11900
C812        C  0.34616009  0.84953636  0.84818018     0.23500
C813        C  0.33291305  0.83707352  0.84998945    -0.12500
C814        C  0.32829560  0.82736802  0.82086795     0.04900
C815        C  0.35175489  0.85924432  0.88001355     0.27300
C816        C  0.35845919  0.85624614  0.90870137    -0.13200
C817        C  0.36548431  0.86626704  0.93634419     0.05400
C818        C  0.36601861  0.87946905  0.93524717    -0.09100
C819        C  0.35836369  0.88200615  0.90809904     0.06200
C820        C  0.35131905  0.87193260  0.88042361    -0.13500
Br821      Br  0.32127293  0.83322783  0.89284285    -0.05600
Br822      Br  0.36202064  0.84714513  0.74517734     0.00100
Br823      Br  0.37392769  0.86160494  0.97654720     0.00500
Br824      Br  0.34150357  0.87565487  0.84205210    -0.03900
Br825      Br  0.30972768  0.81086425  0.82283121     0.00600
Br826      Br  0.37251566  0.86979679  0.81366944    -0.03200
Br827      Br  0.35839308  0.83853540  0.90944063    -0.04100
Br828      Br  0.35806273  0.89950955  0.90742362    -0.00100
C829        C  0.43039680  0.79845578  0.72121594     0.01300
C830        C  0.42073945  0.79042223  0.74920925     0.04200
C831        C  0.40803879  0.79063422  0.75328954    -0.11900
C832        C  0.40477218  0.79866212  0.72918247     0.23500
C833        C  0.41445301  0.80686820  0.70169290    -0.12500
C834        C  0.42725131  0.80685651  0.69779313     0.04900
C835        C  0.39079552  0.79782215  0.73108719     0.27300
C836        C  0.37904772  0.78659338  0.71374328    -0.13200
C837        C  0.36602059  0.78625494  0.71296246     0.05400
C838        C  0.36479589  0.79735492  0.72873653    -0.09100
C839        C  0.37635101  0.80823125  0.74752706     0.06200
C840        C  0.38932061  0.80845167  0.74879895    -0.13500
Br841      Br  0.40989710  0.81781569  0.66858007    -0.05600
Br842      Br  0.42493480  0.77940735  0.78302525     0.00100
Br843      Br  0.35008206  0.77088836  0.68876069     0.00500
Br844      Br  0.40512230  0.82339545  0.77435409    -0.03900
Br845      Br  0.43992004  0.81777286  0.65867108     0.00600
Br846      Br  0.39497699  0.77987861  0.79183946    -0.03200
Br847      Br  0.38101434  0.77196646  0.68975316    -0.04100
Br848      Br  0.37418535  0.82248676  0.77284899    -0.00100
C849        C  0.28949127  0.76314975  0.72126947     0.01300
C850        C  0.28073645  0.76054416  0.75195668     0.04200
C851        C  0.26745841  0.74814330  0.75384815    -0.11900
C852        C  0.26307512  0.73810019  0.72560211     0.23500
C853        C  0.27184053  0.74067564  0.69497263    -0.12500
C854        C  0.28491990  0.75326573  0.69251580     0.04900
C855        C  0.24932415  0.72473370  0.72800819     0.27300
C856        C  0.24837487  0.71297672  0.74660939    -0.13200
C857        C  0.23564004  0.69996098  0.74646932     0.05400
C858        C  0.22384900  0.69855844  0.72702139    -0.09100
C859        C  0.22473191  0.71047630  0.70915947     0.06200
C860        C  0.23740567  0.72355530  0.71002664    -0.13500
Br861      Br  0.26589082  0.72685753  0.65642807    -0.05600
Br862      Br  0.28725793  0.77350661  0.79245270     0.00100
Br863      Br  0.23431870  0.68420549  0.77394118     0.00500
Br864      Br  0.23869173  0.73986824  0.68568676    -0.03900
Br865      Br  0.29619017  0.75725726  0.64878396     0.00600
Br866      Br  0.25523373  0.74486722  0.79507695    -0.03200
Br867      Br  0.26471809  0.71468100  0.77143168    -0.04100
Br868      Br  0.20905018  0.70877149  0.68090415    -0.00100
C869        C  0.49252147  0.56112790  0.01253843     0.01300
C870        C  0.48223870  0.55558369  0.98456233     0.04200
C871        C  0.47004534  0.54224972  0.98906840    -0.11900
C872        C  0.46815823  0.53429964  0.02108840     0.23500
C873        C  0.47852329  0.53957309  0.04848710    -0.12500
C874        C  0.49057649  0.55300915  0.04452753     0.04900
C875        C  0.45497859  0.52059563  0.02622432     0.27300
C876        C  0.44389159  0.51994327  0.04732709    -0.13200
C877        C  0.43082004  0.50734095  0.04886894     0.05400
C878        C  0.42863907  0.49558139  0.02808330    -0.09100
C879        C  0.43990080  0.49602068  0.00835713     0.06200
C880        C  0.45315250  0.50845062  0.00799636    -0.13500
Br881      Br  0.47610469  0.52829617  0.09153611    -0.05600
Br882      Br  0.48413175  0.56645014  0.94100844     0.00100
Br883      Br  0.41566507  0.50656807  0.07759864     0.00500
Br884      Br  0.46874061  0.50904199  0.98181283    -0.03900
Br885      Br  0.50442234  0.55995812  0.08317032     0.00600
Br886      Br  0.45557400  0.53490315  0.95189851    -0.03200
Br887      Br  0.44633265  0.53654287  0.07245432    -0.04100
Br888      Br  0.43715409  0.47954594  0.98206755    -0.00100
C889        C  0.22545409  0.50888220  0.28575228     0.01300
C890        C  0.23351441  0.51317727  0.25331710     0.04200
C891        C  0.24632732  0.51308346  0.25125820    -0.11900
C892        C  0.25120715  0.50886044  0.28174959     0.23500
C893        C  0.24283740  0.50391828  0.31350099    -0.12500
C894        C  0.22995993  0.50385373  0.31551218     0.04900
C895        C  0.26577069  0.51109969  0.28224472     0.27300
C896        C  0.26840138  0.50016046  0.27247378    -0.13200
C897        C  0.28214113  0.50216692  0.27550013     0.05400
C898        C  0.29330805  0.51514529  0.28844912    -0.09100
C899        C  0.29055576  0.52601451  0.29860762     0.06200
C900        C  0.27688081  0.52402848  0.29515002    -0.13500
Br901      Br  0.24954351  0.49804588  0.35505582    -0.05600
Br902      Br  0.22695585  0.51909587  0.21157487     0.00100
Br903      Br  0.28558122  0.48713363  0.26144781     0.00500
Br904      Br  0.27314471  0.53885291  0.30954485    -0.03900
Br905      Br  0.21922740  0.49805124  0.36043209     0.00600
Br906      Br  0.25748489  0.51918161  0.20719203    -0.03200
Br907      Br  0.25305069  0.48234231  0.25581054    -0.04100
Br908      Br  0.30511131  0.54318645  0.32075623    -0.00100
C909        C  0.34103053  0.49910627  0.22941007     0.01300
C910        C  0.34989646  0.50644718  0.19950854     0.04200
C911        C  0.35343800  0.49917521  0.17378337    -0.11900
C912        C  0.34824167  0.48453639  0.17772204     0.23500
C913        C  0.33913728  0.47712113  0.20702614    -0.12500
C914        C  0.33560981  0.48438447  0.23294327     0.04900
C915        C  0.35351291  0.47741259  0.15286840     0.27300
C916        C  0.34624883  0.47087166  0.12041909    -0.13200
C917        C  0.35239604  0.46596230  0.09470112     0.05400
C918        C  0.36593112  0.46783492  0.10110907    -0.09100
C919        C  0.37290358  0.47381197  0.13422215     0.06200
C920        C  0.36661368  0.47838305  0.16025023    -0.13500
Br921      Br  0.33169168  0.45703365  0.21187696    -0.05600
Br922      Br  0.35831712  0.52673227  0.19515680     0.00100
Br923      Br  0.34287564  0.45782587  0.04926118     0.00500
Br924      Br  0.37615645  0.48651328  0.20561730    -0.03900
Br925      Br  0.32318652  0.47406092  0.27300455     0.00600
Br926      Br  0.36587943  0.50938089  0.13359949    -0.03200
Br927      Br  0.32825872  0.46935148  0.11040829    -0.04100
Br928      Br  0.39125891  0.47598524  0.14352079    -0.00100
C929        C  0.47109530  0.76195336  0.27229936     0.01300
C930        C  0.46084007  0.74880761  0.28709100     0.04200
C931        C  0.46294578  0.73711069  0.28598087    -0.11900
C932        C  0.47511599  0.73832398  0.26934888     0.23500
C933        C  0.48514424  0.75130123  0.25350169    -0.12500
C934        C  0.48318916  0.76311525  0.25513394     0.04900
C935        C  0.47732694  0.72592747  0.26933318     0.27300
C936        C  0.48510097  0.72421871  0.29764436    -0.13200
C937        C  0.48579125  0.71170846  0.30025040     0.05400
C938        C  0.47855965  0.70074885  0.27470109    -0.09100
C939        C  0.47126936  0.70269955  0.24551578     0.06200
C940        C  0.47071376  0.71528152  0.24276267    -0.13500
Br941      Br  0.50156021  0.75284895  0.22966973    -0.05600
Br942      Br  0.44416210  0.74682830  0.31070805     0.00100
Br943      Br  0.49577341  0.70926926  0.34064287     0.00500
Br944      Br  0.46058908  0.71781375  0.20306851    -0.03900
Br945      Br  0.49679946  0.78072013  0.23238401     0.00600
Br946      Br  0.44933305  0.71944394  0.30838217    -0.03200
Br947      Br  0.49426293  0.73875644  0.33398918    -0.04100
Br948      Br  0.46223207  0.68823304  0.20882509    -0.00100
C949        C  0.49770842  0.65143701  0.22283011     0.01300
C950        C  0.51211986  0.65583843  0.22815821     0.04200
C951        C  0.51905987  0.65119949  0.20433409    -0.11900
C952        C  0.51173770  0.64240319  0.17471900     0.23500
C953        C  0.49738315  0.63801304  0.16928668    -0.12500
C954        C  0.49034559  0.64244200  0.19330408     0.04900
C955        C  0.51887873  0.63753501  0.14899671     0.27300
C956        C  0.52435978  0.64483786  0.11583813    -0.13200
C957        C  0.52800612  0.63852192  0.08762046     0.05400
C958        C  0.52650540  0.62504309  0.09300783    -0.09100
C959        C  0.52209144  0.61827627  0.12727659     0.06200
C960        C  0.51830396  0.62453252  0.15524446    -0.13500
Br961      Br  0.48731828  0.62558996  0.12912440    -0.05600
Br962      Br  0.52264450  0.66879109  0.26692424     0.00100
Br963      Br  0.53331225  0.64752057  0.04030713     0.00500
Br964      Br  0.51145046  0.61494452  0.20141523    -0.03900
Br965      Br  0.47040079  0.63537422  0.18660999     0.00600
Br966      Br  0.53853720  0.65667901  0.21235753    -0.03200
Br967      Br  0.52592443  0.66307608  0.10860441    -0.04100
Br968      Br  0.52057209  0.60007119  0.13528341    -0.00100
C969        C  0.37132537  0.56054420  0.29955936     0.01300
C970        C  0.37469584  0.56918046  0.26806600     0.04200
C971        C  0.38762082  0.58199773  0.26596171    -0.11900
C972        C  0.39711100  0.58638667  0.29548333     0.23500
C973        C  0.39374247  0.57787919  0.32701693    -0.12500
C974        C  0.38096949  0.56494547  0.32896812     0.04900
C975        C  0.41086803  0.59973372  0.29307061     0.27300
C976        C  0.42314462  0.59930767  0.28380670    -0.13200
C977        C  0.43632617  0.61183586  0.28312572     0.05400
C978        C  0.43725989  0.62488634  0.29146249    -0.09100
C979        C  0.42492875  0.62530980  0.30043952     0.06200
C980        C  0.41175883  0.61276803  0.30104161    -0.13500
Br981      Br  0.40677928  0.58399477  0.36750440    -0.05600
Br982      Br  0.36209102  0.56316060  0.22672927     0.00100
Br983      Br  0.45297671  0.61105862  0.26964430     0.00500
Br984      Br  0.39493198  0.61340255  0.31325826    -0.03900
Br985      Br  0.37670502  0.55359164  0.37268024     0.00600
Br986      Br  0.39264248  0.59343880  0.22223583    -0.03200
Br987      Br  0.42180510  0.58147243  0.27192031    -0.04100
Br988      Br  0.42610582  0.64289925  0.31453878    -0.00100
C989        C  0.32961909  0.51814249  0.41954469     0.01300
C990        C  0.33654431  0.53016558  0.44231430     0.04200
C991        C  0.33594130  0.52853930  0.48049868    -0.11900
C992        C  0.32739430  0.51512798  0.49632723     0.23500
C993        C  0.31986579  0.50321568  0.47387022    -0.12500
C994        C  0.32113878  0.50465837  0.43559963     0.04900
C995        C  0.32604014  0.51372478  0.53665836     0.27300
C996        C  0.33387633  0.50893340  0.55651732    -0.13200
C997        C  0.33308913  0.50823217  0.59489611     0.05400
C998        C  0.32488862  0.51290376  0.61363953    -0.09100
C999        C  0.31674471  0.51734265  0.59360024     0.06200
C1000       C  0.31728976  0.51769754  0.55520870    -0.13500
Br1001     Br  0.30769175  0.48494222  0.49575168    -0.05600
Br1002     Br  0.34669867  0.54903492  0.42216566     0.00100
Br1003     Br  0.34384098  0.50147441  0.62137968     0.00500
Br1004     Br  0.30632253  0.52397180  0.52782040    -0.03900
Br1005     Br  0.31025153  0.48823131  0.40546581     0.00600
Br1006     Br  0.34717136  0.54464407  0.51143424    -0.03200
Br1007     Br  0.34630815  0.50409363  0.53104151    -0.04100
Br1008     Br  0.30435797  0.52242384  0.61850169    -0.00100
C1009       C  0.22440987  0.51378019  0.74142252     0.01300
C1010       C  0.23725122  0.52351386  0.72437151     0.04200
C1011       C  0.24909666  0.52179220  0.72751958    -0.11900
C1012       C  0.24818946  0.51029105  0.74731685     0.23500
C1013       C  0.23550149  0.50070953  0.76497216    -0.12500
C1014       C  0.22359056  0.50240221  0.76186792     0.04900
C1015       C  0.26073608  0.50848201  0.74914055     0.27300
C1016       C  0.26311186  0.50097615  0.72150639    -0.13200
C1017       C  0.27611648  0.50126364  0.71962570     0.05400
C1018       C  0.28690575  0.50935333  0.74502840    -0.09100
C1019       C  0.28409026  0.51606118  0.77406999     0.06200
C1020       C  0.27104290  0.51562853  0.77605692    -0.13500
Br1021     Br  0.23462434  0.48550884  0.79398838    -0.05600
Br1022     Br  0.23858765  0.53883501  0.69477790     0.00100
Br1023     Br  0.27927254  0.49129348  0.68067997     0.00500
Br1024     Br  0.26743781  0.52542770  0.81454334    -0.03900
Br1025     Br  0.20639315  0.48946650  0.78692818     0.00600
Br1026     Br  0.26672895  0.53526787  0.70482750    -0.03200
Br1027     Br  0.24879458  0.49109161  0.68493358    -0.04100
Br1028     Br  0.29795672  0.52559566  0.81174956    -0.00100
C1029       C  0.36532857  0.46879263  0.93519664     0.01300
C1030       C  0.36601275  0.48209506  0.93519689     0.04200
C1031       C  0.35900564  0.48541415  0.90806645    -0.11900
C1032       C  0.35124236  0.47554882  0.88067311     0.23500
C1033       C  0.34997452  0.46205366  0.88146157    -0.12500
C1034       C  0.35710469  0.45870758  0.90839889     0.04900
C1035       C  0.34537699  0.47995557  0.84985658     0.27300
C1036       C  0.33234668  0.47952764  0.85353522    -0.13200
C1037       C  0.32797179  0.48583303  0.82676704     0.05400
C1038       C  0.33668264  0.49274189  0.79639775    -0.09100
C1039       C  0.34932068  0.49242074  0.79165212     0.06200
C1040       C  0.35364630  0.48606220  0.81833406    -0.13500
Br1041     Br  0.33852501  0.44824269  0.84533408    -0.05600
Br1042     Br  0.37628973  0.49588737  0.97273600     0.00100
Br1043     Br  0.30985115  0.48469246  0.83109817     0.00500
Br1044     Br  0.37134267  0.48639158  0.81276854    -0.03900
Br1045     Br  0.35643698  0.44073214  0.90637258     0.00600
Br1046     Br  0.36008811  0.50362742  0.90805888    -0.03200
Br1047     Br  0.32081787  0.47080697  0.89604912    -0.04100
Br1048     Br  0.36131726  0.50154417  0.75004858    -0.00100
C1049       C  0.47947728  0.66207261  0.60039856     0.01300
C1050       C  0.47245734  0.65041720  0.57676165     0.04200
C1051       C  0.47409462  0.65237580  0.53879345    -0.11900
C1052       C  0.48310307  0.66591947  0.52416004     0.23500
C1053       C  0.49074303  0.67746660  0.54770739    -0.12500
C1054       C  0.48892682  0.67557582  0.58582854     0.04900
C1055       C  0.48401583  0.66791194  0.48393063     0.27300
C1056       C  0.49274054  0.66450895  0.46323859    -0.13200
C1057       C  0.49186552  0.66412667  0.42482966     0.05400
C1058       C  0.48269130  0.66781415  0.40691918    -0.09100
C1059       C  0.47473135  0.67222971  0.42781361     0.06200
C1060       C  0.47510317  0.67187965  0.46617986    -0.13500
Br1061     Br  0.50330424  0.69593260  0.52751357    -0.05600
Br1062     Br  0.46097752  0.63157202  0.59630817     0.00100
Br1063     Br  0.50218520  0.65712074  0.39758171     0.00500
Br1064     Br  0.46275036  0.67598877  0.49462937    -0.03900
Br1065     Br  0.49878988  0.69169295  0.61754100     0.00600
Br1066     Br  0.46355024  0.63654841  0.50662778    -0.03200
Br1067     Br  0.50534879  0.65967714  0.48796844    -0.04100
Br1068     Br  0.46343077  0.67902613  0.40417700    -0.00100
C1069       C  0.47091423  0.69576974  0.71893058     0.01300
C1070       C  0.47416488  0.70326419  0.75209522     0.04200
C1071       C  0.47453184  0.71634260  0.75378618    -0.11900
C1072       C  0.47182176  0.72206000  0.72222573     0.23500
C1073       C  0.46901156  0.71475312  0.68883494    -0.12500
C1074       C  0.46850248  0.70163111  0.68719557     0.04900
C1075       C  0.47152286  0.73554232  0.72410170     0.27300
C1076       C  0.45850702  0.73519897  0.72627701    -0.13200
C1077       C  0.45803454  0.74786858  0.72539449     0.05400
C1078       C  0.47068963  0.76110634  0.72319113    -0.09100
C1079       C  0.48377315  0.76138158  0.72256076     0.06200
C1080       C  0.48414153  0.74864631  0.72233040    -0.13500
Br1081     Br  0.46584759  0.72278032  0.64526408    -0.05600
Br1082     Br  0.47739888  0.69526041  0.79563812     0.00100
Br1083     Br  0.43981854  0.74670405  0.72471956     0.00500
Br1084     Br  0.50192384  0.74902439  0.71856362    -0.03900
Br1085     Br  0.46505923  0.69197262  0.64098810     0.00600
Br1086     Br  0.47846015  0.72631841  0.79946850    -0.03200
Br1087     Br  0.44126022  0.71717825  0.72948381    -0.04100
Br1088     Br  0.50133216  0.77911791  0.72383040    -0.00100
C1089       C  0.49161406  0.64733750  0.78231588     0.01300
C1090       C  0.49092299  0.63407285  0.78055741     0.04200
C1091       C  0.49711465  0.62999596  0.80827708    -0.11900
C1092       C  0.50452737  0.63933758  0.83701696     0.23500
C1093       C  0.50586447  0.65284908  0.83777114    -0.12500
C1094       C  0.49934310  0.65681088  0.81069042     0.04900
C1095       C  0.50999359  0.63450341  0.86773558     0.27300
C1096       C  0.50162523  0.62866876  0.89917608    -0.13200
C1097       C  0.50621846  0.62320000  0.92743022     0.05400
C1098       C  0.51902290  0.62310283  0.92396502    -0.09100
C1099       C  0.52768629  0.62943984  0.89312786     0.06200
C1100       C  0.52319001  0.63520050  0.86512419    -0.13500
Br1101     Br  0.51632849  0.66575424  0.87663619    -0.05600
Br1102     Br  0.48086856  0.62102078  0.74149647     0.00100
Br1103     Br  0.49514027  0.61632498  0.97164758     0.00500
Br1104     Br  0.53486180  0.64373716  0.82266604    -0.03900
Br1105     Br  0.50142671  0.67544314  0.81199584     0.00600
Br1106     Br  0.49473951  0.61124581  0.80825161    -0.03200
Br1107     Br  0.48359557  0.62776626  0.90296756    -0.04100
Br1108     Br  0.54525912  0.62949080  0.88808558    -0.00100
C1109       C  0.42957326  0.62074656  0.72617808     0.01300
C1110       C  0.42462179  0.61541098  0.76162284     0.04200
C1111       C  0.41174043  0.60266034  0.76618161    -0.11900
C1112       C  0.40383016  0.59517949  0.73540209     0.23500
C1113       C  0.40866104  0.60058590  0.70010738    -0.12500
C1114       C  0.42141374  0.61337481  0.69548499     0.04900
C1115       C  0.39035743  0.58161986  0.73968712     0.27300
C1116       C  0.39047838  0.56884834  0.74306648    -0.13200
C1117       C  0.37769092  0.55589321  0.74381710     0.05400
C1118       C  0.36467057  0.55553853  0.73959569    -0.09100
C1119       C  0.36459884  0.56844305  0.73714854     0.06200
C1120       C  0.37741834  0.58142452  0.73753576    -0.13500
Br1121     Br  0.39771669  0.59031419  0.65803552    -0.05600
Br1122     Br  0.43579535  0.62508317  0.80391052     0.00100
Br1123     Br  0.37817463  0.53874683  0.75235905     0.00500
Br1124     Br  0.37749446  0.59909169  0.73320810    -0.03900
Br1125     Br  0.42723278  0.62105689  0.64694945     0.00600
Br1126     Br  0.40491735  0.59526594  0.81445705    -0.03200
Br1127     Br  0.40826301  0.56913375  0.74491038    -0.04100
Br1128     Br  0.34717337  0.56855815  0.73049565    -0.00100
C1129       C  0.95629752  0.54976223  0.99613302     0.01300
C1130       C  0.96565184  0.54846450  0.02042624     0.04200
C1131       C  0.98029782  0.55737818  0.01666198    -0.11900
C1132       C  0.98572962  0.56750324  0.98839191     0.23500
C1133       C  0.97647509  0.56899925  0.96447977    -0.12500
C1134       C  0.96177567  0.56005842  0.96808412     0.04900
C1135       C  0.00120932  0.57571833  0.98252237     0.27300
C1136       C  0.00959066  0.58806279  0.00275585    -0.13200
C1137       C  0.02439033  0.59433873  0.00224356     0.05400
C1138       C  0.03086995  0.58831641  0.98122658    -0.09100
C1139       C  0.02242383  0.57657209  0.95860968     0.06200
C1140       C  0.00763006  0.57025156  0.95957568    -0.13500
Br1141     Br  0.98407269  0.58324627  0.92667561    -0.05600
Br1142     Br  0.95866027  0.53357456  0.05679194     0.00100
Br1143     Br  0.03570844  0.61116983  0.03052679     0.00500
Br1144     Br  0.99596383  0.55338020  0.93159869    -0.03900
Br1145     Br  0.94924252  0.56201920  0.93459113     0.00600
Br1146     Br  0.99307047  0.55544338  0.04954429    -0.03200
Br1147     Br  0.00062417  0.59584886  0.03257163    -0.04100
Br1148     Br  0.03073793  0.56807594  0.92874972    -0.00100
C1149       C  0.96084247  0.39488132  0.99923225     0.01300
C1150       C  0.96694520  0.38809742  0.01861017     0.04200
C1151       C  0.98172118  0.39474502  0.02222532    -0.11900
C1152       C  0.99041321  0.40821692  0.00673084     0.23500
C1153       C  0.98431323  0.41498327  0.98729997    -0.12500
C1154       C  0.96957716  0.40831031  0.98337120     0.04900
C1155       C  0.00598341  0.41543427  0.01106096     0.27300
C1156       C  0.01240458  0.42383380  0.04197911    -0.13200
C1157       C  0.02721260  0.43178680  0.04452421     0.05400
C1158       C  0.03572708  0.43120700  0.01618007    -0.09100
C1159       C  0.02920883  0.42239534  0.98574520     0.06200
C1160       C  0.01438482  0.41454468  0.98326995    -0.13500
Br1161     Br  0.99618616  0.43362708  0.96701342    -0.05600
Br1162     Br  0.95509059  0.36953256  0.03916730     0.00100
Br1163     Br  0.03552384  0.44448165  0.08539164     0.00500
Br1164     Br  0.00544056  0.40277010  0.94136849    -0.03900
Br1165     Br  0.96138911  0.41806264  0.95807665     0.00600
Br1166     Br  0.99014262  0.38554366  0.04871443    -0.03200
Br1167     Br  0.00079896  0.42485068  0.08021434    -0.04100
Br1168     Br  0.04045418  0.42092277  0.94725134    -0.00100
C1169       C  0.92568645  0.42254295  0.99494726     0.01300
C1170       C  0.91736541  0.42599830  0.97239643     0.04200
C1171       C  0.91866047  0.43943882  0.97480641    -0.11900
C1172       C  0.92834663  0.44950147  0.99940464     0.23500
C1173       C  0.93722054  0.44635859  0.02037377    -0.12500
C1174       C  0.93581260  0.43284699  0.01844316     0.04900
C1175       C  0.92825658  0.46287457  0.00515889     0.27300
C1176       C  0.93620986  0.47462794  0.98230579    -0.13200
C1177       C  0.93451745  0.48655149  0.98459447     0.05400
C1178       C  0.92490277  0.48675267  0.00995935    -0.09100
C1179       C  0.91766086  0.47533658  0.03454020     0.06200
C1180       C  0.91928530  0.46338817  0.03191605    -0.13500
Br1181     Br  0.95117836  0.46057596  0.05192075    -0.05600
Br1182     Br  0.90340062  0.41208090  0.94005523     0.00100
Br1183     Br  0.94565885  0.50272178  0.95350133     0.00500
Br1184     Br  0.90869546  0.44734410  0.06381366    -0.03900
Br1185     Br  0.94797768  0.42860681  0.04750028     0.00600
Br1186     Br  0.90679201  0.44396905  0.94537535    -0.03200
Br1187     Br  0.94915165  0.47418072  0.94736601    -0.04100
Br1188     Br  0.90469746  0.47543665  0.07020730    -0.00100
C1189       C  0.89070732  0.36087694  0.08088370     0.01300
C1190       C  0.88714711  0.36910789  0.10349142     0.04200
C1191       C  0.87663800  0.36258404  0.13037962    -0.11900
C1192       C  0.86966897  0.34782133  0.13521402     0.23500
C1193       C  0.87359006  0.33962352  0.11393201    -0.12500
C1194       C  0.88424519  0.34614278  0.08718637     0.04900
C1195       C  0.85781432  0.34102169  0.16170291     0.27300
C1196       C  0.86032249  0.33875691  0.19815188    -0.13200
C1197       C  0.84936914  0.33390161  0.22416549     0.05400
C1198       C  0.83586595  0.33144952  0.21387273    -0.09100
C1199       C  0.83328263  0.33324770  0.17690224     0.06200
C1200       C  0.84421139  0.33791340  0.15096128    -0.13500
Br1201     Br  0.86383230  0.31937585  0.12051104    -0.05600
Br1202     Br  0.89708234  0.38948796  0.09914065     0.00100
Br1203     Br  0.85290792  0.33034290  0.27366343     0.00500
Br1204     Br  0.84078951  0.34066246  0.10066012    -0.03900
Br1205     Br  0.88946561  0.33466554  0.05868376     0.00600
Br1206     Br  0.87140930  0.37381922  0.16010979    -0.03200
Br1207     Br  0.87893183  0.34273510  0.21242003    -0.04100
Br1208     Br  0.81520177  0.33058150  0.16170053    -0.00100
C1209       C  0.83529883  0.48750378  0.22414460     0.01300
C1210       C  0.83704497  0.48051579  0.19396183     0.04200
C1211       C  0.84836358  0.48792871  0.16967449    -0.11900
C1212       C  0.85824902  0.50227681  0.17581077     0.23500
C1213       C  0.85659014  0.50932482  0.20584594    -0.12500
C1214       C  0.84512355  0.50196576  0.23001441     0.04900
C1215       C  0.87065697  0.50953436  0.15121718     0.27300
C1216       C  0.88248213  0.50792673  0.15731017    -0.13200
C1217       C  0.89284919  0.51191274  0.13006373     0.05400
C1218       C  0.89147754  0.51763075  0.09666524    -0.09100
C1219       C  0.88039511  0.52061366  0.09223023     0.06200
C1220       C  0.86992622  0.51643415  0.11940864    -0.13500
Br1221     Br  0.87011810  0.52902687  0.21365852    -0.05600
Br1222     Br  0.82468842  0.46044535  0.18729760     0.00100
Br1223     Br  0.90889905  0.50942620  0.13859802     0.00500
Br1224     Br  0.85402780  0.51923761  0.11221560    -0.03900
Br1225     Br  0.84278555  0.51185753  0.27049501     0.00600
Br1226     Br  0.85051642  0.47836456  0.12801313    -0.03200
Br1227     Br  0.88399372  0.49949614  0.20229129    -0.04100
Br1228     Br  0.87873945  0.52927264  0.04785206    -0.00100
C1229       C  0.80181486  0.42501634  0.27665199     0.01300
C1230       C  0.81452001  0.42481341  0.27178204     0.04200
C1231       C  0.81432393  0.41184134  0.26966440    -0.11900
C1232       C  0.80143282  0.39899366  0.27187456     0.23500
C1233       C  0.78867927  0.39916209  0.27466583    -0.12500
C1234       C  0.78884493  0.41211518  0.27737786     0.04900
C1235       C  0.80140583  0.38537329  0.27421292     0.27300
C1236       C  0.80233100  0.37865859  0.24242463    -0.13200
C1237       C  0.80316901  0.36621625  0.24517159     0.05400
C1238       C  0.80255381  0.36011846  0.27975137    -0.09100
C1239       C  0.80121593  0.36668336  0.31150754     0.06200
C1240       C  0.80079129  0.37932742  0.30870933    -0.13500
Br1241     Br  0.77101812  0.38152288  0.27577155    -0.05600
Br1242     Br  0.83222027  0.44229159  0.26678007     0.00100
Br1243     Br  0.80620675  0.35822023  0.20158856     0.00500
Br1244     Br  0.79932339  0.38845870  0.35222265    -0.03900
Br1245     Br  0.77130223  0.41196574  0.28485522     0.00600
Br1246     Br  0.83175507  0.41159570  0.26455788    -0.03200
Br1247     Br  0.80237703  0.38653643  0.19513546    -0.04100
Br1248     Br  0.79931198  0.35813884  0.35901959    -0.00100
C1249       C  0.80944029  0.31843666  0.40083989     0.01300
C1250       C  0.79756473  0.31001466  0.42299730     0.04200
C1251       C  0.79891803  0.31030220  0.46123976    -0.11900
C1252       C  0.81224843  0.31857069  0.47754605     0.23500
C1253       C  0.82427221  0.32631553  0.45541044    -0.12500
C1254       C  0.82285277  0.32646407  0.41716813     0.04900
C1255       C  0.81335613  0.31979599  0.51797292     0.27300
C1256       C  0.81391098  0.33160021  0.53512485    -0.13200
C1257       C  0.81376347  0.33230153  0.57343020     0.05400
C1258       C  0.81244831  0.32092194  0.59477159    -0.09100
C1259       C  0.81220016  0.30924109  0.57769978     0.06200
C1260       C  0.81293519  0.30882402  0.53936296    -0.13500
Br1261     Br  0.84260569  0.33706095  0.47779664    -0.05600
Br1262     Br  0.77944890  0.29770260  0.40105225     0.00100
Br1263     Br  0.81585555  0.34911586  0.59664352     0.00500
Br1264     Br  0.81301328  0.29307369  0.51596874    -0.03900
Br1265     Br  0.83912356  0.33865562  0.38772049     0.00600
Br1266     Br  0.78239169  0.29980856  0.49151982    -0.03200
Br1267     Br  0.81434337  0.34660223  0.50608794    -0.04100
Br1268     Br  0.80970263  0.29328004  0.60643451    -0.00100
C1269       C  0.83715354  0.32834671  0.78407241     0.01300
C1270       C  0.83766140  0.33582283  0.81600605     0.04200
C1271       C  0.84898093  0.34021730  0.84049719    -0.11900
C1272       C  0.85991130  0.33732329  0.83311955     0.23500
C1273       C  0.85914024  0.32933548  0.80228077    -0.12500
C1274       C  0.84776638  0.32481025  0.77780722     0.04900
C1275       C  0.87249282  0.34340354  0.85709247     0.27300
C1276       C  0.88391358  0.35698667  0.84945777    -0.13200
C1277       C  0.89476137  0.36386198  0.87522233     0.05400
C1278       C  0.89401523  0.35732656  0.90912412    -0.09100
C1279       C  0.88309005  0.34333102  0.91558826     0.06200
C1280       C  0.87240302  0.33634338  0.88941460    -0.13500
Br1281     Br  0.87380663  0.32478854  0.79364736    -0.05600
Br1282     Br  0.82355902  0.34113091  0.82535288     0.00100
Br1283     Br  0.91061698  0.38230616  0.86413399     0.00500
Br1284     Br  0.85705766  0.31745980  0.89870485    -0.03900
Br1285     Br  0.84658805  0.31341046  0.73635860     0.00600
Br1286     Br  0.84981434  0.35062487  0.88388942    -0.03200
Br1287     Br  0.88414976  0.36651376  0.80470886    -0.04100
Br1288     Br  0.88181294  0.33420138  0.96166260    -0.00100
C1289       C  0.80385700  0.46811620  0.60104077     0.01300
C1290       C  0.79137142  0.46303406  0.58030199     0.04200
C1291       C  0.79206880  0.46377501  0.54198098    -0.11900
C1292       C  0.80526062  0.47023931  0.52428648     0.23500
C1293       C  0.81777349  0.47611931  0.54496649    -0.12500
C1294       C  0.81709452  0.47486854  0.58328820     0.04900
C1295       C  0.80588234  0.46989246  0.48390604     0.27300
C1296       C  0.80744603  0.45920381  0.46695279    -0.13200
C1297       C  0.80750000  0.45840752  0.42869591     0.05400
C1298       C  0.80553016  0.46802804  0.40718267    -0.09100
C1299       C  0.80402440  0.47878790  0.42416303     0.06200
C1300       C  0.80435184  0.47979616  0.46251865    -0.13500
Br1301     Br  0.83580490  0.48528781  0.52042732    -0.05600
Br1302     Br  0.77326346  0.45536915  0.60425378     0.00100
Br1303     Br  0.81088144  0.44444636  0.40591556     0.00500
Br1304     Br  0.80236776  0.49449934  0.48600321    -0.03900
Br1305     Br  0.83427997  0.48130535  0.61079334     0.00600
Br1306     Br  0.77494437  0.45523917  0.51346130    -0.03200
Br1307     Br  0.80912889  0.44538879  0.49630945    -0.04100
Br1308     Br  0.80055061  0.49156231  0.39526988    -0.00100
C1309       C  0.83023777  0.47780820  0.79298716     0.01300
C1310       C  0.83016556  0.48801467  0.81622083     0.04200
C1311       C  0.84013491  0.49390317  0.84453095    -0.11900
C1312       C  0.85032674  0.48974856  0.84928674     0.23500
C1313       C  0.85038822  0.47952344  0.82601746    -0.12500
C1314       C  0.84030416  0.47350037  0.79801973     0.04900
C1315       C  0.86122949  0.49635189  0.87812598     0.27300
C1316       C  0.87456467  0.50795445  0.86942934    -0.13200
C1317       C  0.88535717  0.51353075  0.89583836     0.05400
C1318       C  0.88277170  0.50754680  0.93123010    -0.09100
C1319       C  0.86912139  0.49643986  0.94042808     0.06200
C1320       C  0.85843957  0.49076775  0.91381400    -0.13500
Br1321     Br  0.86432822  0.47380943  0.83264767    -0.05600
Br1322     Br  0.81680197  0.49436764  0.80808723     0.00100
Br1323     Br  0.90386082  0.52866921  0.88235672     0.00500
Br1324     Br  0.84005116  0.47507142  0.92583638    -0.03900
Br1325     Br  0.83995948  0.45899158  0.76734040     0.00600
Br1326     Br  0.83994457  0.50771448  0.87678011    -0.03200
Br1327     Br  0.87805981  0.51582456  0.82071957    -0.04100
Br1328     Br  0.86484194  0.48919302  0.98986045    -0.00100
C1329       C  0.79996553  0.42082464  0.71053510     0.01300
C1330       C  0.80671833  0.41795402  0.68160956     0.04200
C1331       C  0.80752801  0.40550298  0.68205942    -0.11900
C1332       C  0.80139148  0.39574851  0.71092442     0.23500
C1333       C  0.79433795  0.39837099  0.73927295    -0.12500
C1334       C  0.79361642  0.41088226  0.73918407     0.04900
C1335       C  0.80231019  0.38266591  0.71135538     0.27300
C1336       C  0.79165324  0.37031393  0.69480453    -0.13200
C1337       C  0.79265617  0.35796950  0.69441599     0.05400
C1338       C  0.80418034  0.35783514  0.71148586    -0.09100
C1339       C  0.81479057  0.37022793  0.72838069     0.06200
C1340       C  0.81388903  0.38263677  0.72803387    -0.13500
Br1341     Br  0.78589674  0.38482033  0.77851807    -0.05600
Br1342     Br  0.81425321  0.43061182  0.64013544     0.00100
Br1343     Br  0.77866243  0.34163124  0.66818215     0.00500
Br1344     Br  0.82848728  0.39968028  0.75042718    -0.03900
Br1345     Br  0.78452674  0.41454742  0.77946208     0.00600
Br1346     Br  0.81713877  0.40175540  0.64328108    -0.03200
Br1347     Br  0.77571859  0.37043033  0.67250577    -0.04100
Br1348     Br  0.83028613  0.37017513  0.75347888    -0.00100
C1349       C  0.40051574  0.95094089  0.01132931     0.01300
C1350       C  0.39700695  0.95675681  0.04132437     0.04200
C1351       C  0.40253853  0.97149037  0.04372575    -0.11900
C1352       C  0.41150950  0.98053931  0.01621373     0.23500
C1353       C  0.41432951  0.97475731  0.98520547    -0.12500
C1354       C  0.40886902  0.96003615  0.98266616     0.04900
C1355       C  0.41931263  0.99614684  0.02166743     0.27300
C1356       C  0.41419520  0.00471520  0.00724185    -0.13200
C1357       C  0.42249343  0.01958275  0.00921779     0.05400
C1358       C  0.43579244  0.02594245  0.02649110    -0.09100
C1359       C  0.44060188  0.01728472  0.04238011     0.06200
C1360       C  0.43235112  0.00246208  0.04007604    -0.13500
Br1361     Br  0.42642121  0.98724222  0.94716516    -0.05600
Br1362     Br  0.38442207  0.94464145  0.07908566     0.00100
Br1363     Br  0.41554733  0.03122308  0.98866019     0.00500
Br1364     Br  0.43896910  0.99066560  0.06170581    -0.03900
Br1365     Br  0.41398366  0.95276788  0.94098293     0.00600
Br1366     Br  0.39840258  0.97951553  0.08548325    -0.03200
Br1367     Br  0.39574973  0.99603581  0.98523963    -0.04100
Br1368     Br  0.45903704  0.02555860  0.06470187    -0.00100
C1369       C  0.46940778  0.09458049  0.11100136     0.01300
C1370       C  0.47755167  0.09495939  0.14147004     0.04200
C1371       C  0.48182829  0.10573638  0.16760066    -0.11900
C1372       C  0.47866095  0.11662780  0.16248344     0.23500
C1373       C  0.47012345  0.11603863  0.13301556    -0.12500
C1374       C  0.46502580  0.10473951  0.10809385     0.04900
C1375       C  0.48523121  0.12919462  0.18661018     0.27300
C1376       C  0.47744312  0.13066665  0.21512453    -0.13200
C1377       C  0.48394654  0.14245377  0.23848983     0.05400
C1378       C  0.49834325  0.15269684  0.23370094    -0.09100
C1379       C  0.50608225  0.15115747  0.20497036     0.06200
C1380       C  0.49947764  0.13955165  0.18125272    -0.13500
Br1381     Br  0.46638139  0.13136801  0.12534639    -0.05600
Br1382     Br  0.48308920  0.08082264  0.14780624     0.00100
Br1383     Br  0.47287051  0.14471172  0.27598246     0.00500
Br1384     Br  0.51002347  0.13773025  0.14142201    -0.03900
Br1385     Br  0.45276528  0.10384440  0.06914995     0.00600
Br1386     Br  0.49259663  0.10602404  0.20977023    -0.03200
Br1387     Br  0.45789472  0.11642008  0.22216958    -0.04100
Br1388     Br  0.52603830  0.16427277  0.19918525    -0.00100
C1389       C  0.51404577  0.18093757  0.41753778     0.01300
C1390       C  0.50650880  0.16718652  0.43281275     0.04200
C1391       C  0.50560760  0.16535549  0.47104252    -0.11900
C1392       C  0.51248536  0.17717031  0.49412047     0.23500
C1393       C  0.51976700  0.19087336  0.47900133    -0.12500
C1394       C  0.52032614  0.19278749  0.44089823     0.04900
C1395       C  0.51268066  0.17530137  0.53429253     0.27300
C1396       C  0.50223924  0.17538878  0.55659180    -0.13200
C1397       C  0.50343087  0.17537226  0.59490878     0.05400
C1398       C  0.51499055  0.17502932  0.61101920    -0.09100
C1399       C  0.52498643  0.17410765  0.58857300     0.06200
C1400       C  0.52393538  0.17444952  0.55033518    -0.13500
Br1401     Br  0.52935549  0.20701197  0.51079197    -0.05600
Br1402     Br  0.49823167  0.15069960  0.40182666     0.00100
Br1403     Br  0.48983431  0.17701555  0.62497177     0.00500
Br1404     Br  0.53824666  0.17437787  0.51970888    -0.03900
Br1405     Br  0.52921267  0.21174549  0.42111388     0.00600
Br1406     Br  0.49530042  0.14665225  0.49206828    -0.03200
Br1407     Br  0.48663659  0.17614316  0.53443115    -0.04100
Br1408     Br  0.53997135  0.17199281  0.61002415    -0.00100
C1409       C  0.47235676  0.09663640  0.93798587     0.01300
C1410       C  0.46519436  0.10436333  0.93467161     0.04200
C1411       C  0.46953302  0.11522489  0.90825631    -0.11900
C1412       C  0.48069257  0.11809210  0.88414526     0.23500
C1413       C  0.48727643  0.10985550  0.88591991    -0.12500
C1414       C  0.48329825  0.09931474  0.91291155     0.04900
C1415       C  0.48602896  0.13008675  0.85767717     0.27300
C1416       C  0.47980626  0.12820511  0.82297584    -0.13200
C1417       C  0.48593592  0.13905949  0.79649920     0.05400
C1418       C  0.49877721  0.15162426  0.80398399    -0.09100
C1419       C  0.50471404  0.15363456  0.83935019     0.06200
C1420       C  0.49814843  0.14303180  0.86623421    -0.13500
Br1421     Br  0.50197296  0.11323814  0.85129792    -0.05600
Br1422     Br  0.44994163  0.10078065  0.96734218     0.00100
Br1423     Br  0.47629820  0.13679638  0.75068171     0.00500
Br1424     Br  0.50596482  0.14600420  0.91481694    -0.03900
Br1425     Br  0.49282246  0.08843370  0.91456945     0.00600
Br1426     Br  0.46064341  0.12663909  0.90586954    -0.03200
Br1427     Br  0.46313443  0.11049090  0.81148689    -0.04100
Br1428     Br  0.52248787  0.17029116  0.85087924    -0.00100
C1429       C  0.59546654  0.02842889  0.99968109     0.01300
C1430       C  0.58691910  0.01954974  0.02849093     0.04200
C1431       C  0.58044708  0.00471024  0.02544177    -0.11900
C1432       C  0.58294275  0.99859341  0.99461641     0.23500
C1433       C  0.59220635  0.00738459  0.96715569    -0.12500
C1434       C  0.59830428  0.02219958  0.96936814     0.04900
C1435       C  0.57545745  0.98289429  0.99072157     0.27300
C1436       C  0.58072719  0.97491006  0.00793485    -0.13200
C1437       C  0.57302676  0.95999181  0.00668758     0.05400
C1438       C  0.56016865  0.95296923  0.98741450    -0.09100
C1439       C  0.55513107  0.96101926  0.96918629     0.06200
C1440       C  0.56271054  0.97590636  0.97102550    -0.13500
Br1441     Br  0.59630557  0.99898030  0.92614360    -0.05600
Br1442     Br  0.58330331  0.02732496  0.07169543     0.00100
Br1443     Br  0.58019763  0.94918447  0.03089827     0.00500
Br1444     Br  0.55542158  0.98680567  0.94757383    -0.03900
Br1445     Br  0.61081708  0.03384564  0.93082092     0.00600
Br1446     Br  0.56750570  0.99255942  0.06267365    -0.03200
Br1447     Br  0.59850380  0.98455050  0.03335108    -0.04100
Br1448     Br  0.53727728  0.95170415  0.94378032    -0.00100
C1449       C  0.56356152  0.06211001  0.99551817     0.01300
C1450       C  0.55302130  0.05138299  0.01752354     0.04200
C1451       C  0.53966883  0.05021279  0.02049661    -0.11900
C1452       C  0.53674122  0.05954575  0.00089311     0.23500
C1453       C  0.54689297  0.06963560  0.97705709    -0.12500
C1454       C  0.56037654  0.07109653  0.97475711     0.04900
C1455       C  0.52346651  0.05963253  0.00757030     0.27300
C1456       C  0.51111295  0.05038300  0.98846104    -0.13200
C1457       C  0.49874864  0.05109190  0.99365806     0.05400
C1458       C  0.49891013  0.06143977  0.01703136    -0.09100
C1459       C  0.51128340  0.07051211  0.03674413     0.06200
C1460       C  0.52345312  0.06942878  0.03238512    -0.13500
Br1461     Br  0.54236111  0.08174270  0.94847004    -0.05600
Br1462     Br  0.55663399  0.03801498  0.04295633     0.00100
Br1463     Br  0.48152418  0.03741389  0.97000875     0.00500
Br1464     Br  0.54032087  0.08159513  0.05979521    -0.03900
Br1465     Br  0.57469229  0.08630041  0.94564738     0.00600
Br1466     Br  0.52544587  0.03609410  0.05208987    -0.03200
Br1467     Br  0.51131519  0.03697201  0.95468041    -0.04100
Br1468     Br  0.51216230  0.08520562  0.06783482    -0.00100
C1469       C  0.62474543  0.18865824  0.28728410     0.01300
C1470       C  0.62018146  0.19262095  0.25551432     0.04200
C1471       C  0.60710663  0.19222147  0.25541289    -0.11900
C1472       C  0.59865429  0.18807641  0.28707378     0.23500
C1473       C  0.60327464  0.18435456  0.31890748    -0.12500
C1474       C  0.61630995  0.18473263  0.31915108     0.04900
C1475       C  0.58494080  0.18776612  0.28726105     0.16500
C1476       C  0.58454911  0.20026740  0.29381945    -0.13200
C1477       C  0.57151287  0.19987792  0.29566081     0.05400
C1478       C  0.55880638  0.18689627  0.29198589    -0.09100
C1479       C  0.55921604  0.17438516  0.28536863     0.06200
C1480       C  0.57227551  0.17486953  0.28247388    -0.13500
Br1481     Br  0.59158545  0.17863676  0.36216935    -0.05600
Br1482     Br  0.63142923  0.19807103  0.21151051     0.00100
Br1483     Br  0.57107807  0.21701971  0.30540393     0.00500
Br1484     Br  0.57293410  0.15788885  0.27221422    -0.03900
Br1485     Br  0.62289018  0.18067610  0.36408775     0.00600
Br1486     Br  0.60047494  0.19697769  0.21170115    -0.03200
Br1487     Br  0.60192443  0.21781143  0.30154327    -0.04100
Br1488     Br  0.54191048  0.15661404  0.27939746    -0.00100
C1489       C  0.65063311  0.15641902  0.20886652     0.01300
C1490       C  0.63778294  0.14354553  0.21277305     0.04200
C1491       C  0.63341665  0.13313344  0.18557070    -0.11900
C1492       C  0.64176722  0.13553777  0.15418162     0.23500
C1493       C  0.65460382  0.14836500  0.15022441    -0.12500
C1494       C  0.65905963  0.15877623  0.17753994     0.04900
C1495       C  0.63673847  0.12462866  0.12510687     0.27300
C1496       C  0.63982704  0.11357198  0.12692172    -0.13200
C1497       C  0.63385095  0.10242909  0.10144947     0.05400
C1498       C  0.62485129  0.10239307  0.07366714    -0.09100
C1499       C  0.62238638  0.11393510  0.07092053     0.06200
C1500       C  0.62810852  0.12484629  0.09692521    -0.13500
Br1501     Br  0.66604991  0.15164616  0.10730003    -0.05600
Br1502     Br  0.62561540  0.14039263  0.25420998     0.00100
Br1503     Br  0.63739594  0.08688929  0.10640227     0.00500
Br1504     Br  0.62380303  0.13997191  0.09481326    -0.03900
Br1505     Br  0.67701388  0.17599813  0.17264950     0.00600
Br1506     Br  0.61582506  0.11556297  0.19084868    -0.03200
Br1507     Br  0.65191204  0.11358030  0.16532283    -0.04100
Br1508     Br  0.61173156  0.11536148  0.03061583    -0.00100
C1509       C  0.70179768  0.22077767  0.26790085     0.01300
C1510       C  0.70395411  0.23146486  0.24250744     0.04200
C1511       C  0.71715982  0.24396537  0.24024507    -0.11900
C1512       C  0.72825378  0.24591108  0.26347262     0.23500
C1513       C  0.72632259  0.23502185  0.28768712    -0.12500
C1514       C  0.71318496  0.22244123  0.28974937     0.04900
C1515       C  0.74154516  0.25980039  0.26491440     0.27300
C1516       C  0.75375282  0.26188269  0.24652803    -0.13200
C1517       C  0.76664527  0.27461323  0.25102512     0.05400
C1518       C  0.76726761  0.28550007  0.27311273    -0.09100
C1519       C  0.75490685  0.28350471  0.29066459     0.06200
C1520       C  0.74213706  0.27067283  0.28676344    -0.13500
Br1521     Br  0.74154274  0.23777858  0.31959586    -0.05600
Br1522     Br  0.68891504  0.22897245  0.21025804     0.00100
Br1523     Br  0.78331138  0.27717436  0.22615150     0.00500
Br1524     Br  0.72543210  0.26776528  0.31221173    -0.03900
Br1525     Br  0.71066320  0.20807328  0.32475379     0.00600
Br1526     Br  0.71998068  0.25868543  0.20618784    -0.03200
Br1527     Br  0.75269267  0.24724388  0.21509625    -0.04100
Br1528     Br  0.75553672  0.29793914  0.32222523    -0.00100
C1529       C  0.66449612  0.17899691  0.59295378     0.01300
C1530       C  0.65499804  0.18094614  0.57082732     0.04200
C1531       C  0.65580204  0.18056289  0.53255606    -0.11900
C1532       C  0.66599889  0.17813887  0.51598499     0.23500
C1533       C  0.67521885  0.17576061  0.53779963    -0.12500
C1534       C  0.67448052  0.17616295  0.57621310     0.04900
C1535       C  0.66738830  0.17895655  0.47556345     0.27300
C1536       C  0.65924690  0.16688768  0.45407064    -0.13200
C1537       C  0.65885352  0.16818357  0.41580577     0.05400
C1538       C  0.66674380  0.18159950  0.39893313    -0.09100
C1539       C  0.67554974  0.19350825  0.42047121     0.06200
C1540       C  0.67579393  0.19218405  0.45864822    -0.13500
Br1541     Br  0.68917201  0.17246876  0.51475932    -0.05600
Br1542     Br  0.64049358  0.18374425  0.59247945     0.00100
Br1543     Br  0.64656931  0.15171733  0.38726788     0.00500
Br1544     Br  0.68721955  0.20860537  0.48824014    -0.03900
Br1545     Br  0.68787232  0.17379302  0.60535643     0.00600
Br1546     Br  0.64314551  0.18374766  0.50240210    -0.03200
Br1547     Br  0.64818560  0.14872495  0.47755138    -0.04100
Br1548     Br  0.68753681  0.21168578  0.39785938    -0.00100
C1549       C  0.65659214  0.15383405  0.78431238     0.01300
C1550       C  0.64592170  0.15137305  0.80991865     0.04200
C1551       C  0.64142338  0.14027182  0.83540142    -0.11900
C1552       C  0.64721982  0.13130592  0.83484613     0.23500
C1553       C  0.65801036  0.13385419  0.80981241    -0.12500
C1554       C  0.66275307  0.14514775  0.78469580     0.04900
C1555       C  0.64154098  0.11900747  0.86015774     0.27300
C1556       C  0.64752958  0.12043663  0.89502749    -0.13200
C1557       C  0.64083520  0.10952301  0.92106843     0.05400
C1558       C  0.62800849  0.09720438  0.91236806    -0.09100
C1559       C  0.62238311  0.09554488  0.87686098     0.06200
C1560       C  0.62922553  0.10636304  0.85071525    -0.13500
Br1561     Br  0.66620873  0.12180654  0.81009981    -0.05600
Br1562     Br  0.63654353  0.16239728  0.80862349     0.00100
Br1563     Br  0.64858458  0.11214349  0.96965147     0.00500
Br1564     Br  0.62146227  0.10418344  0.80226355    -0.03900
Br1565     Br  0.67802391  0.14898235  0.75176829     0.00600
Br1566     Br  0.62715932  0.13717079  0.87114247    -0.03200
Br1567     Br  0.66444823  0.13777080  0.90757708    -0.04100
Br1568     Br  0.60517927  0.07851186  0.86406594    -0.00100
C1569       C  0.62598615  0.18296739  0.71803196     0.01300
C1570       C  0.62483163  0.19239663  0.74232848     0.04200
C1571       C  0.61194365  0.19227715  0.74579672    -0.11900
C1572       C  0.60008221  0.18265025  0.72551440     0.23500
C1573       C  0.60100530  0.17285529  0.70247745    -0.12500
C1574       C  0.61387397  0.17297666  0.69869519     0.04900
C1575       C  0.58666576  0.18295685  0.72778943     0.27300
C1576       C  0.57583323  0.17370768  0.75164476    -0.13200
C1577       C  0.56292616  0.17364015  0.75266363     0.05400
C1578       C  0.56077609  0.18279483  0.72965101    -0.09100
C1579       C  0.57171971  0.19219404  0.70612210     0.06200
C1580       C  0.58461715  0.19225577  0.70521535    -0.13500
Br1581     Br  0.58453464  0.15931128  0.67583459    -0.05600
Br1582     Br  0.64051133  0.20487781  0.77297897     0.00100
Br1583     Br  0.54839965  0.16138186  0.78662330     0.00500
Br1584     Br  0.59942058  0.20477880  0.67224797    -0.03900
Br1585     Br  0.61470566  0.15961687  0.66581487     0.00600
Br1586     Br  0.61040327  0.20523224  0.77860076    -0.03200
Br1587     Br  0.57870150  0.16100374  0.78247649    -0.04100
Br1588     Br  0.56881918  0.20440886  0.67333393    -0.00100
C1589       C  0.77167070  0.28179841  0.71614358     0.01300
C1590       C  0.76365684  0.27590709  0.68426141     0.04200
C1591       C  0.75081736  0.26304456  0.68619542    -0.11900
C1592       C  0.74576922  0.25620765  0.72014273     0.23500
C1593       C  0.75395285  0.26195214  0.75189667    -0.12500
C1594       C  0.76695225  0.27468309  0.74980811     0.04900
C1595       C  0.73155025  0.24337800  0.72243348     0.27300
C1596       C  0.71946124  0.24480607  0.72254240    -0.13200
C1597       C  0.70590011  0.23272994  0.72176748     0.05400
C1598       C  0.70431516  0.21901352  0.72152717    -0.09100
C1599       C  0.71654823  0.21768453  0.72322351     0.06200
C1600       C  0.73008539  0.22982695  0.72302643    -0.13500
Br1601     Br  0.74721483  0.25249750  0.79825962    -0.05600
Br1602     Br  0.76979361  0.28593303  0.63831240     0.00100
Br1603     Br  0.68976331  0.23541201  0.71861650     0.00500
Br1604     Br  0.74676025  0.22801773  0.72249012    -0.03900
Br1605     Br  0.77853261  0.28226004  0.79273862     0.00600
Br1606     Br  0.73994303  0.25486900  0.64244878    -0.03200
Br1607     Br  0.72163522  0.26350310  0.72255125    -0.04100
Br1608     Br  0.71502546  0.19933979  0.72752270    -0.00100
C1609       C  0.40022369  0.43209018  0.01024495     0.01300
C1610       C  0.41002717  0.43296671  0.03684974     0.04200
C1611       C  0.41677034  0.42490315  0.03313604    -0.11900
C1612       C  0.41339930  0.41544931  0.00372782     0.23500
C1613       C  0.40331424  0.41421688  0.97781335    -0.12500
C1614       C  0.39707140  0.42279360  0.98041844     0.04900
C1615       C  0.42097677  0.40733389  0.99944543     0.27300
C1616       C  0.43234167  0.41207404  0.97473130    -0.13200
C1617       C  0.44039435  0.40527651  0.97307417     0.05400
C1618       C  0.43723313  0.39369340  0.99643917    -0.09100
C1619       C  0.42569426  0.38881528  0.02080869     0.06200
C1620       C  0.41741118  0.39541370  0.02160345    -0.13500
Br1621     Br  0.39813427  0.40076987  0.93860047    -0.05600
Br1622     Br  0.41528675  0.44607351  0.07703858     0.00100
Br1623     Br  0.45651338  0.41279537  0.94059929     0.00500
Br1624     Br  0.40096159  0.38804614  0.05257444    -0.03900
Br1625     Br  0.38427074  0.42177154  0.94272983     0.00600
Br1626     Br  0.43122207  0.42732094  0.06746569    -0.03200
Br1627     Br  0.43709553  0.42814810  0.94353193    -0.04100
Br1628     Br  0.42106865  0.37304561  0.05300715    -0.00100
C1629       C  0.59624730  0.55303947  0.00712620     0.01300
C1630       C  0.59066883  0.55502095  0.97412533     0.04200
C1631       C  0.58453509  0.56369970  0.97332984    -0.11900
C1632       C  0.58360861  0.57021400  0.00547540     0.23500
C1633       C  0.58968693  0.56880699  0.03799431    -0.12500
C1634       C  0.59604899  0.56032195  0.03883217     0.04900
C1635       C  0.57461122  0.57687015  0.00601949     0.27300
C1636       C  0.58034609  0.59144666  0.99903496    -0.13200
C1637       C  0.57147826  0.59739598  0.99831249     0.05400
C1638       C  0.55689470  0.58879250  0.00493626    -0.09100
C1639       C  0.55121993  0.57423617  0.01202304     0.06200
C1640       C  0.56002196  0.56829462  0.01245465    -0.13500
Br1641     Br  0.58865494  0.57800595  0.08185034    -0.05600
Br1642     Br  0.58978892  0.54468662  0.93059948     0.00100
Br1643     Br  0.57933464  0.61735253  0.98945502     0.00500
Br1644     Br  0.55205153  0.54827442  0.02140608    -0.03900
Br1645     Br  0.60437537  0.55871994  0.08380701     0.00600
Br1646     Br  0.57651376  0.56601678  0.92860282    -0.03200
Br1647     Br  0.60031915  0.60317589  0.99056551    -0.04100
Br1648     Br  0.53121272  0.56221516  0.01976719    -0.00100
C1649       C  0.56564213  0.48632027  0.01441841     0.01300
C1650       C  0.56349581  0.47377112  0.03153073     0.04200
C1651       C  0.55020583  0.46141467  0.02969014    -0.11900
C1652       C  0.53915324  0.46145403  0.01005635     0.23500
C1653       C  0.54115948  0.47402159  0.99378263    -0.12500
C1654       C  0.55433945  0.48647301  0.99620877     0.04900
C1655       C  0.52573815  0.44802041  0.00470570     0.27300
C1656       C  0.52470099  0.43887993  0.97639563    -0.13200
C1657       C  0.51263825  0.42539936  0.97348975     0.05400
C1658       C  0.50118281  0.42132447  0.99775357    -0.09100
C1659       C  0.50191148  0.43095331  0.02458307     0.06200
C1660       C  0.51432355  0.44411709  0.02863961    -0.13500
Br1661     Br  0.52588539  0.47401360  0.96743908    -0.05600
Br1662     Br  0.57895590  0.47302480  0.05491366     0.00100
Br1663     Br  0.51255505  0.41225150  0.93827747     0.00500
Br1664     Br  0.51598186  0.45678123  0.06740190    -0.03900
Br1665     Br  0.55673135  0.50380070  0.97532679     0.00600
Br1666     Br  0.54710684  0.44422114  0.05318645    -0.03200
Br1667     Br  0.54006268  0.44491358  0.94205982    -0.04100
Br1668     Br  0.48574034  0.42646502  0.05480940    -0.00100
C1669       C  0.52012204  0.28832530  0.29045523     0.01300
C1670       C  0.50880827  0.27676040  0.27260469     0.04200
C1671       C  0.50825711  0.26359951  0.27106391    -0.11900
C1672       C  0.51881716  0.26179187  0.28797130     0.23500
C1673       C  0.53006738  0.27326432  0.30600405    -0.12500
C1674       C  0.53081517  0.28651830  0.30699703     0.04900
C1675       C  0.51788203  0.24771682  0.28791217     0.27300
C1676       C  0.50972288  0.23755559  0.31464545    -0.13200
C1677       C  0.50952122  0.22456445  0.31621309     0.05400
C1678       C  0.51732228  0.22157329  0.29064423    -0.09100
C1679       C  0.52494253  0.23148067  0.26284500     0.06200
C1680       C  0.52541189  0.24460648  0.26184829    -0.13500
Br1681     Br  0.54427182  0.27063293  0.33022112    -0.05600
Br1682     Br  0.49422871  0.27892613  0.24906638     0.00100
Br1683     Br  0.49928154  0.21133281  0.35501439     0.00500
Br1684     Br  0.53667257  0.25849336  0.22534097    -0.03900
Br1685     Br  0.54616432  0.30187649  0.33303894     0.00600
Br1686     Br  0.49301890  0.24794252  0.24577708    -0.03200
Br1687     Br  0.49920057  0.24169287  0.34994894    -0.04100
Br1688     Br  0.53421962  0.22681579  0.22505840    -0.00100
C1689       C  0.47378946  0.35791646  0.07550397     0.01300
C1690       C  0.46440202  0.35081621  0.10475078     0.04200
C1691       C  0.46819097  0.34425714  0.13220983    -0.11900
C1692       C  0.48152951  0.34528447  0.13141008     0.23500
C1693       C  0.49064383  0.35182535  0.10164834    -0.12500
C1694       C  0.48663459  0.35776637  0.07326770     0.04900
C1695       C  0.48657249  0.34065566  0.16326715     0.27300
C1696       C  0.49234778  0.34976758  0.19332869    -0.13200
C1697       C  0.49829098  0.34610852  0.22244570     0.05400
C1698       C  0.49885579  0.33346475  0.22114084    -0.09100
C1699       C  0.49266768  0.32414872  0.19140801     0.06200
C1700       C  0.48645623  0.32771261  0.16263786    -0.13500
Br1701     Br  0.50890518  0.35309395  0.10064834    -0.05600
Br1702     Br  0.44685399  0.35085143  0.10920535     0.00100
Br1703     Br  0.50646000  0.35904470  0.26271989     0.00500
Br1704     Br  0.47812145  0.31514555  0.12168939    -0.03900
Br1705     Br  0.49864433  0.36511070  0.03070148     0.00600
Br1706     Br  0.45538636  0.33413789  0.17175015    -0.03200
Br1707     Br  0.49281497  0.36770610  0.19342751    -0.04100
Br1708     Br  0.49233160  0.30633044  0.19028271    -0.00100
C1709       C  0.63053772  0.51669280  0.09067605     0.01300
C1710       C  0.63490511  0.52471393  0.12313784     0.04200
C1711       C  0.64214438  0.52158840  0.15023170    -0.11900
C1712       C  0.64444695  0.51008492  0.14572216     0.23500
C1713       C  0.64074846  0.50257731  0.11264497    -0.12500
C1714       C  0.63410917  0.50606150  0.08495195     0.04900
C1715       C  0.64905426  0.50466172  0.17701538     0.27300
C1716       C  0.66309195  0.50752440  0.17967747    -0.13200
C1717       C  0.66678500  0.50068646  0.20657356     0.05400
C1718       C  0.65651483  0.49117861  0.23134079    -0.09100
C1719       C  0.64268625  0.48904281  0.23012153     0.06200
C1720       C  0.63892005  0.49557614  0.20262952    -0.13500
Br1721     Br  0.64418350  0.48700916  0.10597707    -0.05600
Br1722     Br  0.62989916  0.53904888  0.13220825     0.00100
Br1723     Br  0.68601912  0.50466256  0.21021979     0.00500
Br1724     Br  0.61962805  0.49149051  0.19864152    -0.03900
Br1725     Br  0.63024099  0.49632432  0.03881523     0.00600
Br1726     Br  0.64860304  0.53268080  0.19419337    -0.03200
Br1727     Br  0.67714433  0.52059222  0.14599910    -0.04100
Br1728     Br  0.62858800  0.47656768  0.26473214    -0.00100
C1729       C  0.62723509  0.42890957  0.29294122     0.01300
C1730       C  0.62358997  0.42048240  0.26114501     0.04200
C1731       C  0.61083412  0.40747034  0.25985143    -0.11900
C1732       C  0.60162820  0.40289058  0.29008244     0.23500
C1733       C  0.60534841  0.41109416  0.32200819    -0.12500
C1734       C  0.61809188  0.42404090  0.32355297     0.04900
C1735       C  0.58782811  0.38959034  0.28844692     0.27300
C1736       C  0.57547236  0.39016203  0.28142350    -0.13200
C1737       C  0.56218999  0.37776928  0.28330532     0.05400
C1738       C  0.56123248  0.36464218  0.29118688    -0.09100
C1739       C  0.57369950  0.36408604  0.29761736     0.06200
C1740       C  0.58692940  0.37656702  0.29665841    -0.13500
Br1741     Br  0.59292207  0.40434618  0.36389850    -0.05600
Br1742     Br  0.63560062  0.42690265  0.21850299     0.00100
Br1743     Br  0.54541961  0.37890459  0.27434527     0.00500
Br1744     Br  0.60385991  0.37601464  0.30818149    -0.03900
Br1745     Br  0.62318222  0.43455341  0.36872242     0.00600
Br1746     Br  0.60589068  0.39584056  0.21672941    -0.03200
Br1747     Br  0.57688839  0.40810052  0.26984588    -0.04100
Br1748     Br  0.57278856  0.34646167  0.31033949    -0.00100
C1749       C  0.70376677  0.47036429  0.28408532     0.01300
C1750       C  0.71520300  0.47895763  0.30727741     0.04200
C1751       C  0.72796566  0.47882109  0.30441208    -0.11900
C1752       C  0.72930124  0.46990485  0.27902443     0.23500
C1753       C  0.71811309  0.46172512  0.25497145    -0.12500
C1754       C  0.70545256  0.46210721  0.25712501     0.04900
C1755       C  0.74209215  0.46842782  0.27960413     0.27300
C1756       C  0.75370683  0.47688938  0.25681871    -0.13200
C1757       C  0.76601866  0.47584508  0.25884137     0.05400
C1758       C  0.76674582  0.46630738  0.28367439    -0.09100
C1759       C  0.75511785  0.45790321  0.30664869     0.06200
C1760       C  0.74280706  0.45889446  0.30435611    -0.13500
Br1761     Br  0.72004618  0.44969213  0.21983378    -0.05600
Br1762     Br  0.71322241  0.49014668  0.34501308     0.00100
Br1763     Br  0.78171795  0.48723674  0.22682489     0.00500
Br1764     Br  0.72690141  0.44734472  0.33562893    -0.03900
Br1765     Br  0.69062156  0.45171501  0.22215259     0.00600
Br1766     Br  0.74357004  0.49048445  0.33616491    -0.03200
Br1767     Br  0.75271910  0.48996463  0.22307660    -0.04100
Br1768     Br  0.75634111  0.44579353  0.34338391    -0.00100
C1769       C  0.51950737  0.32443049  0.60490135     0.01300
C1770       C  0.53107223  0.33354803  0.58251180     0.04200
C1771       C  0.52944135  0.33339318  0.54436552    -0.11900
C1772       C  0.51619947  0.32444135  0.52839203     0.23500
C1773       C  0.50451886  0.31578481  0.55067502    -0.12500
C1774       C  0.50617816  0.31563518  0.58878858     0.04900
C1775       C  0.51482846  0.32374832  0.48801734     0.27300
C1776       C  0.51261587  0.33368855  0.46881328    -0.13200
C1777       C  0.51304437  0.33403658  0.43033425     0.05400
C1778       C  0.51576826  0.32447425  0.41113394    -0.09100
C1779       C  0.51725997  0.31409255  0.43036947     0.06200
C1780       C  0.51667570  0.31366101  0.46868980    -0.13500
Br1781     Br  0.48630191  0.30398802  0.52864122    -0.05600
Br1782     Br  0.54904936  0.34682321  0.60376547     0.00100
Br1783     Br  0.51097346  0.34827633  0.40422992     0.00500
Br1784     Br  0.51865230  0.29937140  0.49478131    -0.03900
Br1785     Br  0.49029006  0.30263699  0.61830371     0.00600
Br1786     Br  0.54541899  0.34533804  0.51367789    -0.03200
Br1787     Br  0.50941353  0.34703355  0.49549096    -0.04100
Br1788     Br  0.52002056  0.30034005  0.40414448    -0.00100
C1789       C  0.51997662  0.28287314  0.72871400     0.01300
C1790       C  0.52250316  0.27798030  0.76206951     0.04200
C1791       C  0.52174164  0.26471318  0.76383047    -0.11900
C1792       C  0.51836004  0.25624160  0.73235248     0.23500
C1793       C  0.51565610  0.26102991  0.69918623    -0.12500
C1794       C  0.51659273  0.27434775  0.69723880     0.04900
C1795       C  0.51864875  0.24277085  0.73323642     0.27300
C1796       C  0.53084474  0.24266603  0.72148451    -0.13200
C1797       C  0.53107690  0.22991163  0.72050789     0.05400
C1798       C  0.51916109  0.21714425  0.73197394    -0.09100
C1799       C  0.50692041  0.21725680  0.74378970     0.06200
C1800       C  0.50667301  0.23005260  0.74430571    -0.13500
Br1801     Br  0.51117357  0.24947119  0.65602578    -0.05600
Br1802     Br  0.52678190  0.28929507  0.80559839     0.00100
Br1803     Br  0.54745790  0.22993850  0.70069139     0.00500
Br1804     Br  0.48991279  0.23024152  0.75975796    -0.03900
Br1805     Br  0.51451257  0.28138074  0.65050268     0.00600
Br1806     Br  0.52569319  0.25823906  0.80907516    -0.03200
Br1807     Br  0.54718814  0.26007731  0.70595417    -0.04100
Br1808     Br  0.49062003  0.20004694  0.76041480    -0.00100
C1809       C  0.46980384  0.35592725  0.91413561     0.01300
C1810       C  0.46950818  0.34333574  0.92492543     0.04200
C1811       C  0.47412957  0.33652829  0.90061848    -0.11900
C1812       C  0.47907634  0.34229026  0.86567953     0.23500
C1813       C  0.47838632  0.35422660  0.85395436    -0.12500
C1814       C  0.47371204  0.36100553  0.87810622     0.04900
C1815       C  0.48621377  0.33663653  0.84256082     0.27300
C1816       C  0.50068313  0.34152131  0.84781761    -0.13200
C1817       C  0.50784792  0.33701832  0.82447854     0.05400
C1818       C  0.50053525  0.32760067  0.79559325    -0.09100
C1819       C  0.48585963  0.32215866  0.79166378     0.06200
C1820       C  0.47874023  0.32672873  0.81503270    -0.13500
Br1821     Br  0.48450951  0.36166821  0.80533180    -0.05600
Br1822     Br  0.46406354  0.33602179  0.97388848     0.00100
Br1823     Br  0.52789593  0.34466371  0.83113676     0.00500
Br1824     Br  0.45878881  0.31965562  0.80915072    -0.03900
Br1825     Br  0.47267621  0.37728190  0.86176637     0.00600
Br1826     Br  0.47452270  0.31974981  0.91556822    -0.03200
Br1827     Br  0.51079506  0.35482664  0.88641382    -0.04100
Br1828     Br  0.47532068  0.30804275  0.75521654    -0.00100
C1829       C  0.66856376  0.47233332  0.41526106     0.01300
C1830       C  0.66336734  0.48028153  0.43309141     0.04200
C1831       C  0.66364844  0.48110627  0.47142176    -0.11900
C1832       C  0.66888769  0.47385141  0.49203328     0.23500
C1833       C  0.67429318  0.46613431  0.47447441    -0.12500
C1834       C  0.67428017  0.46547640  0.43615619     0.04900
C1835       C  0.66799331  0.47361636  0.53230839     0.27300
C1836       C  0.67968388  0.48318050  0.55320014    -0.13200
C1837       C  0.67915259  0.48210250  0.59155009     0.05400
C1838       C  0.66689671  0.47139843  0.60886468    -0.09100
C1839       C  0.65492203  0.46240089  0.58784551     0.06200
C1840       C  0.65554351  0.46339093  0.54961851    -0.13500
Br1841     Br  0.68135454  0.45616960  0.50337110    -0.05600
Br1842     Br  0.65482580  0.48919669  0.40578279     0.00100
Br1843     Br  0.69547000  0.49481216  0.61990671     0.00500
Br1844     Br  0.63948228  0.45046409  0.52071073    -0.03900
Br1845     Br  0.68255601  0.45551386  0.41269956     0.00600
Br1846     Br  0.65643074  0.49176313  0.49616861    -0.03200
Br1847     Br  0.69652448  0.49737239  0.52885509    -0.04100
Br1848     Br  0.63737749  0.44912737  0.61131265    -0.00100
C1849       C  0.62586080  0.51185784  0.92634877     0.01300
C1850       C  0.62222840  0.49749744  0.92340223     0.04200
C1851       C  0.62907769  0.49341940  0.89774289    -0.11900
C1852       C  0.63932709  0.50350260  0.87406024     0.23500
C1853       C  0.64303373  0.51782203  0.87692240    -0.12500
C1854       C  0.63640648  0.52203167  0.90314654     0.04900
C1855       C  0.64543224  0.49872003  0.84478466     0.27300
C1856       C  0.65801810  0.49841477  0.85073793    -0.13200
C1857       C  0.66293556  0.49257009  0.82427347     0.05400
C1858       C  0.65511397  0.48667916  0.79213963    -0.09100
C1859       C  0.64269169  0.48727997  0.78573019     0.06200
C1860       C  0.63795216  0.49338797  0.81188182    -0.13500
Br1861     Br  0.65705349  0.53156383  0.84434405    -0.05600
Br1862     Br  0.60813443  0.48320218  0.95507235     0.00100
Br1863     Br  0.68061155  0.49295149  0.83148773     0.00500
Br1864     Br  0.62080279  0.49390194  0.80349046    -0.03900
Br1865     Br  0.64121246  0.54159391  0.90557377     0.00600
Br1866     Br  0.62449848  0.47391748  0.89495110    -0.03200
Br1867     Br  0.66822453  0.50546161  0.89575887    -0.04100
Br1868     Br  0.63143733  0.47872282  0.74262544    -0.00100
C1869       C  0.56132970  0.36159501  0.72928744     0.01300
C1870       C  0.56332738  0.37326470  0.70777555     0.04200
C1871       C  0.57627872  0.38604923  0.70886619    -0.11900
C1872       C  0.58717526  0.38738293  0.73189488     0.23500
C1873       C  0.58494178  0.37609892  0.75492557    -0.12500
C1874       C  0.57206303  0.36323228  0.75368765     0.04900
C1875       C  0.60113345  0.40052741  0.73082139     0.27300
C1876       C  0.61094089  0.40230942  0.70344481    -0.13200
C1877       C  0.62394017  0.41501066  0.70112330     0.05400
C1878       C  0.62717489  0.42595400  0.72632888    -0.09100
C1879       C  0.61744625  0.42406115  0.75409674     0.06200
C1880       C  0.60443567  0.41138311  0.75625882    -0.13500
Br1881     Br  0.59963235  0.37835924  0.78808164    -0.05600
Br1882     Br  0.54866576  0.37189755  0.67571003     0.00100
Br1883     Br  0.63692707  0.41766971  0.66215999     0.00500
Br1884     Br  0.59106938  0.40887161  0.79392460    -0.03900
Br1885     Br  0.56891482  0.34822951  0.78718875     0.00600
Br1886     Br  0.57935381  0.40178438  0.67822285    -0.03200
Br1887     Br  0.60633626  0.38733613  0.66880800    -0.04100
Br1888     Br  0.62216939  0.43859380  0.79023391    -0.00100
C1889       C  0.70231917  0.46503675  0.74311249     0.01300
C1890       C  0.70396791  0.45438123  0.72613146     0.04200
C1891       C  0.71688093  0.45458350  0.72856305    -0.11900
C1892       C  0.72822080  0.46542448  0.74799257     0.23500
C1893       C  0.72647268  0.47585735  0.76589495    -0.12500
C1894       C  0.71355028  0.47572184  0.76324457     0.04900
C1895       C  0.74225192  0.46643101  0.74635134     0.27300
C1896       C  0.74558303  0.45844799  0.77042874    -0.13200
C1897       C  0.75793557  0.45770734  0.76506461     0.05400
C1898       C  0.76715730  0.46515121  0.73583386    -0.09100
C1899       C  0.76419066  0.47383493  0.71303036     0.06200
C1900       C  0.75167795  0.47430998  0.71807329    -0.13500
Br1901     Br  0.74192199  0.49047772  0.79316246    -0.05600
Br1902     Br  0.68895893  0.44018790  0.69662501     0.00100
Br1903     Br  0.76224927  0.44662315  0.79836284     0.00500
Br1904     Br  0.74689753  0.48509499  0.68493805    -0.03900
Br1905     Br  0.71120437  0.49011914  0.78712939     0.00600
Br1906     Br  0.71933985  0.44040832  0.70362365    -0.03200
Br1907     Br  0.73295579  0.44819715  0.81011730    -0.04100
Br1908     Br  0.77658401  0.48436516  0.67309428    -0.00100
loop_ 
_geom_bond_atom_site_label_1 
_geom_bond_atom_site_label_2 
_geom_bond_distance 
_geom_bond_site_symmetry_2 
_ccdc_geom_bond_type 
In1           O3   2.258       .  S
In1           O4   2.244       .  S
In1          O12   2.243       .  S
In1           O6   2.241       .  S
In1           O8   2.253       .  S
In1           O9   2.246       .  S
In1          O10   2.231       .  S
In1          O13   2.241       .  S
C2            O8   1.259       .  A
C2           O10   1.258       .  A
C2         C1838   1.473       .  S
O3           C11   1.259       .  A
O4           C11   1.258       .  A
C5           O12   1.261       .  A
C5            O6   1.259       .  A
C5         C1858   1.478       .  S
C7            O9   1.260       .  A
C7           O13   1.260       .  A
C7         C1878   1.474       .  S
C11        C1889   1.475       .  S
In14         O16   2.242       .  S
In14         O17   2.253       .  S
In14         O25   2.243       .  S
In14         O19   2.238       .  S
In14         O21   2.245       .  S
In14         O22   2.253       .  S
In14         O23   2.247       .  S
In14         O26   2.249       .  S
C15          O21   1.260       .  A
C15          O23   1.260       .  A
C15        C1769   1.482       .  S
O16          C24   1.258       .  A
O17          C24   1.261       .  A
C18          O25   1.261       .  A
C18          O19   1.260       .  A
C18        C1818   1.480       .  S
C20          O22   1.261       .  A
C20          O26   1.260       .  A
C20        C1789   1.482       .  S
C24        C1869   1.483       .  S
In27         O29   2.234       .  S
In27         O30   2.252       .  S
In27         O38   2.250       .  S
In27         O32   2.248       .  S
In27         O34   2.254       .  S
In27         O35   2.241       .  S
In27         O36   2.237       .  S
In27         O39   2.252       .  S
C28          O34   1.260       .  A
C28          O36   1.258       .  A
C28        C1829   1.479       .  S
O29          C37   1.259       .  A
O30          C37   1.262       .  A
C31          O38   1.261       .  A
C31          O32   1.260       .  A
C31        C1718   1.479       .  S
C33          O35   1.260       .  A
C33          O39   1.261       .  A
C33        C1749   1.483       .  S
C37        C1729   1.483       .  S
In40         O42   2.261       .  S
In40         O43   2.243       .  S
In40         O51   2.253       .  S
In40         O45   2.253       .  S
In40         O47   2.257       .  S
In40         O48   2.246       .  S
In40         O49   2.225       .  S
In40         O52   2.257       .  S
C41          O47   1.262       .  A
C41          O49   1.260       .  A
C41        C1778   1.474       .  S
O42          C50   1.261       .  A
O43          C50   1.258       .  A
C44          O51   1.259       .  A
C44          O45   1.258       .  A
C44        C1698   1.481       .  S
C46          O48   1.258       .  A
C46          O52   1.260       .  A
C46        C1738   1.481       .  S
C50        C1669   1.485       .  S
In53         O55   2.242       .  S
In53         O56   2.232   1_554  S
In53         O64   2.266   1_554  S
In53         O58   2.254       .  S
In53         O60   2.275       .  S
In53         O61   2.240   1_554  S
In53         O62   2.225       .  S
In53         O65   2.272   1_554  S
C54          O60   1.263       .  A
C54          O62   1.258       .  A
C54        C1709   1.484       .  S
O55          C63   1.263       .  A
O56          C63   1.262   1_556  A
C57          O64   1.260   1_554  A
C57          O58   1.258       .  A
C57        C1629   1.490       .  S
C59          O61   1.258       .  A
C59          O65   1.262       .  A
C59        C1849   1.487       .  S
C63        C1649   1.476       .  S
In66         O68   2.250       .  S
In66         O69   2.235   1_556  S
In66         O77   2.267   1_556  S
In66         O71   2.248       .  S
In66         O73   2.264       .  S
In66         O74   2.221   1_556  S
In66         O75   2.236       .  S
In66         O78   2.266   1_556  S
C67          O73   1.261       .  A
C67          O75   1.259       .  A
C67        C1809   1.478       .  S
O68          C76   1.263       .  A
O69          C76   1.261   1_554  A
C70          O77   1.259   1_556  A
C70          O71   1.258       .  A
C70        C1618   1.488       .  S
C72          O74   1.258       .  A
C72          O78   1.264       .  A
C72        C1689   1.483       .  S
C76        C1658   1.481       .  S
In79         O81   2.243       .  S
In79         O82   2.257       .  S
In79         O90   2.242       .  S
In79         O84   2.252       .  S
In79         O86   2.257       .  S
In79         O87   2.255       .  S
In79         O88   2.241       .  S
In79         O91   2.255       .  S
C80          O86   1.262       .  A
C80          O88   1.261       .  A
C80        C1529   1.486       .  S
O81          C89   1.259       .  A
O82          C89   1.262       .  A
C83          O90   1.260       .  A
C83          O84   1.261       .  A
C83        C1549   1.480       .  S
C85          O87   1.260       .  A
C85          O91   1.260       .  A
C85        C1598   1.493       .  S
C89        C1569   1.488       .  S
In92         O94   2.256       .  S
In92         O95   2.243       .  S
In92        O103   2.249       .  S
In92         O97   2.243       .  S
In92         O99   2.260       .  S
In92        O100   2.257       .  S
In92        O101   2.241       .  S
In92        O104   2.238       .  S
C93          O99   1.261       .  A
C93         O101   1.259       .  A
C93        C1538   1.482       .  S
O94         C102   1.261       .  A
O95         C102   1.260       .  A
C96         O103   1.260       .  A
C96          O97   1.260       .  A
C96        C1489   1.479       .  S
C98         O100   1.261       .  A
C98         O104   1.260       .  A
C98        C1469   1.482       .  S
C102       C1509   1.483       .  S
In105       O107   2.232       .  S
In105       O108   2.234   1_556  S
In105       O116   2.279   1_556  S
In105       O110   2.247       .  S
In105       O112   2.263       .  S
In105       O113   2.235   1_556  S
In105       O114   2.233       .  S
In105       O117   2.274   1_556  S
C106        O112   1.263       .  A
C106        O114   1.258       .  A
C106       C1558   1.478       .  S
O107        C115   1.262       .  A
O108        C115   1.263   1_554  A
C109        O116   1.261   1_556  A
C109        O110   1.257       .  A
C109       C1429   1.495       .  S
C111        O113   1.257       .  A
C111        O117   1.263       .  A
C111       C1498   1.488       .  S
C115       C1449   1.476       .  S
In118       O120   2.258       .  S
In118       O121   2.241       .  S
In118       O129   2.254       .  S
In118       O123   2.256       .  S
In118       O125   2.257       .  S
In118       O126   2.255       .  S
In118       O127   2.236       .  S
In118       O130   2.251       .  S
C119        O125   1.261       .  A
C119        O127   1.259       .  A
C119       C1398   1.479       .  S
O120        C128   1.262       .  A
O121        C128   1.261       .  A
C122        O129   1.260       .  A
C122        O123   1.259       .  A
C122       C1418   1.490       .  S
C124        O126   1.260       .  A
C124        O130   1.259       .  A
C124       C1578   1.480       .  S
C128       C1798   1.483       .  S
In131       O133   2.242       .  S
In131       O134   2.247       .  S
In131       O142   2.250       .  S
In131       O136   2.254       .  S
In131       O138   2.250       .  S
In131       O139   2.247       .  S
In131       O140   2.239       .  S
In131       O143   2.258       .  S
C132        O138   1.262       .  A
C132        O140   1.260       .  A
C132       C1389   1.483       .  S
O133        C141   1.260       .  A
O134        C141   1.261       .  A
C135        O142   1.259       .  A
C135        O136   1.258       .  A
C135       C1378   1.482       .  S
C137        O139   1.259       .  A
C137        O143   1.260       .  A
C137       C1678   1.481       .  S
C141       C1478   1.476       .  S
In144       O146   2.233       .  S
In144       O147   2.242   1_554  S
In144       O155   2.262   1_554  S
In144       O149   2.252       .  S
In144       O151   2.278       .  S
In144       O152   2.226   1_554  S
In144       O153   2.219       .  S
In144       O156   2.281   1_554  S
C145        O151   1.263       .  A
C145        O153   1.258       .  A
C145       C1369   1.485       .  S
O146        C154   1.260       .  A
O147        C154   1.260   1_556  A
C148        O155   1.260   1_554  A
C148        O149   1.258       .  A
C148       C1358   1.484       .  S
C150        O152   1.256       .  A
C150        O156   1.267       .  A
C150       C1409   1.490       .  S
C154       C1458   1.475       .  S
In157       O159   2.230       .  S
In157       O160   2.248       .  S
In157       O168   2.243       .  S
In157       O162   2.246       .  S
In157       O164   2.256       .  S
In157       O165   2.236       .  S
In157       O166   2.225       .  S
In157       O169   2.249       .  S
C158        O164   1.262       .  A
C158        O166   1.258       .  A
C158       C1289   1.477       .  S
O159        C167   1.260       .  A
O160        C167   1.262       .  A
C161        O168   1.260       .  A
C161        O162   1.261       .  A
C161       C1309   1.472       .  S
C163        O165   1.261       .  A
C163        O169   1.261       .  A
C163       C1898   1.483       .  S
C167       C1329   1.479       .  S
In170       O172   2.248       .  S
In170       O173   2.245       .  S
In170       O181   2.255       .  S
In170       O175   2.246       .  S
In170       O177   2.247       .  S
In170       O178   2.245       .  S
In170       O179   2.229       .  S
In170       O182   2.245       .  S
C171        O177   1.263       .  A
C171        O179   1.260       .  A
C171       C1258   1.475       .  S
O172        C180   1.259       .  A
O173        C180   1.260       .  A
C174        O181   1.259       .  A
C174        O175   1.258       .  A
C174       C1269   1.481       .  S
C176        O178   1.260       .  A
C176        O182   1.259       .  A
C176       C1338   1.479       .  S
C180       C1589   1.472       .  S
In183       O185   2.252       .  S
In183       O186   2.243       .  S
In183       O194   2.245       .  S
In183       O188   2.254       .  S
In183       O190   2.251       .  S
In183       O191   2.253       .  S
In183       O192   2.232       .  S
In183       O195   2.245       .  S
C184        O190   1.261       .  A
C184        O192   1.259       .  A
C184       C1298   1.475       .  S
O185        C193   1.260       .  A
O186        C193   1.258       .  A
C187        O194   1.261       .  A
C187        O188   1.259       .  A
C187       C1209   1.481       .  S
C189        O191   1.261       .  A
C189        O195   1.261       .  A
C189       C1229   1.483       .  S
C193       C1758   1.479       .  S
In196       O198   2.247       .  S
In196       O199   2.260       .  S
In196       O207   2.256       .  S
In196       O201   2.255       .  S
In196       O203   2.260       .  S
In196       O204   2.240       .  S
In196       O205   2.239       .  S
In196       O208   2.256       .  S
C197        O203   1.262       .  A
C197        O205   1.260       .  A
C197       C1249   1.481       .  S
O198        C206   1.259       .  A
O199        C206   1.260       .  A
C200        O207   1.258       .  A
C200        O201   1.258       .  A
C200       C1198   1.484       .  S
C202        O204   1.262       .  A
C202        O208   1.262       .  A
C202       C1518   1.483       .  S
C206       C1238   1.485       .  S
In209       O211   2.240   1_556  S
In209       O212   2.240       .  S
In209       O220   2.246       .  S
In209       O214   2.251   1_556  S
In209       O216   2.268   1_556  S
In209       O217   2.221       .  S
In209       O218   2.227   1_556  S
In209       O221   2.265       .  S
C210        O216   1.264       .  A
C210        O218   1.259       .  A
C210       C1189   1.485       .  S
O211        C219   1.260   1_554  A
O212        C219   1.259       .  A
C213        O220   1.259       .  A
C213        O214   1.258   1_556  A
C213       C1149   1.476       .  S
C215        O217   1.257       .  A
C215        O221   1.263       .  A
C215       C1278   1.477       .  S
C219       C1169   1.475       .  S
In222       O224   2.234   1_554  S
In222       O225   2.240       .  S
In222       O233   2.239       .  S
In222       O227   2.254   1_554  S
In222       O229   2.268   1_554  S
In222       O230   2.223       .  S
In222       O231   2.222   1_554  S
In222       O234   2.260       .  S
C223        O229   1.264       .  A
C223        O231   1.257       .  A
C223       C1318   1.481       .  S
O224        C232   1.261   1_556  A
O225        C232   1.260       .  A
C226        O233   1.258   1_556  A
C226        O227   1.260       .  A
C226       C1129   1.480       .  S
C228        O230   1.259       .  A
C228        O234   1.263       .  A
C228       C1218   1.480       .  S
C232       C1178   1.476       .  S
In235       O237   2.239       .  S
In235       O238   2.257       .  S
In235       O246   2.241       .  S
In235       O240   2.252       .  S
In235       O242   2.259       .  S
In235       O243   2.242       .  S
In235       O244   2.226       .  S
In235       O247   2.255       .  S
C236        O242   1.261       .  A
C236        O244   1.259       .  A
C236       C1049   1.478       .  S
O237        C245   1.260       .  A
O238        C245   1.262       .  A
C239        O246   1.261       .  A
C239        O240   1.261       .  A
C239       C1089   1.483       .  S
C241        O243   1.258       .  A
C241        O247   1.260       .  A
C241       C1069   1.478       .  S
C245       C1109   1.481       .  S
In248       O250   2.261       .  S
In248       O251   2.248       .  S
In248       O259   2.245       .  S
In248       O253   2.253       .  S
In248       O255   2.249       .  S
In248       O256   2.264       .  S
In248       O257   2.236       .  S
In248       O260   2.249       .  S
C249        O255   1.261       .  A
C249        O257   1.260       .  A
C249        C998   1.479       .  S
O250        C258   1.259       .  A
O251        C258   1.260       .  A
C252        O259   1.261       .  A
C252        O253   1.260       .  A
C252       C1038   1.481       .  S
C254        O256   1.262       .  A
C254        O260   1.261       .  A
C254       C1118   1.489       .  S
C258       C1018   1.482       .  S
In261       O263   2.251       .  S
In261       O264   2.241       .  S
In261       O272   2.248       .  S
In261       O266   2.245       .  S
In261       O268   2.259       .  S
In261       O269   2.240       .  S
In261       O270   2.229       .  S
In261       O273   2.241       .  S
C262        O268   1.262       .  A
C262        O270   1.258       .  A
C262       C1058   1.482       .  S
O263        C271   1.260       .  A
O264        C271   1.259       .  A
C265        O272   1.259       .  A
C265        O266   1.259       .  A
C265        C949   1.480       .  S
C267        O269   1.262       .  A
C267        O273   1.261       .  A
C267        C978   1.477       .  S
C271        C938   1.479       .  S
In274       O276   2.245       .  S
In274       O277   2.253       .  S
In274       O285   2.244       .  S
In274       O279   2.255       .  S
In274       O281   2.252       .  S
In274       O282   2.237       .  S
In274       O283   2.238       .  S
In274       O286   2.249       .  S
C275        O281   1.263       .  A
C275        O283   1.259       .  A
C275        C989   1.485       .  S
O276        C284   1.259       .  A
O277        C284   1.261       .  A
C278        O285   1.260       .  A
C278        O279   1.262       .  A
C278        C909   1.485       .  S
C280        O282   1.262       .  A
C280        O286   1.262       .  A
C280        C898   1.483       .  S
C284        C969   1.482       .  S
In287       O289   2.257   1_554  S
In287       O290   2.229       .  S
In287       O298   2.246       .  S
In287       O292   2.274   1_554  S
In287       O294   2.276   1_554  S
In287       O295   2.222       .  S
In287       O296   2.227   1_554  S
In287       O299   2.273       .  S
C288        O294   1.262       .  A
C288        O296   1.256       .  A
C288       C1098   1.480       .  S
O289        C297   1.264   1_556  A
O290        C297   1.260       .  A
C291        O298   1.256       .  A
C291        O292   1.260   1_554  A
C291       C1638   1.478       .  S
C293        O295   1.256       .  A
C293        O299   1.263       .  A
C293        C958   1.474       .  S
C297        C869   1.483       .  S
In300       O302   2.244       .  S
In300       O303   2.231   1_554  S
In300       O311   2.254   1_554  S
In300       O305   2.262       .  S
In300       O307   2.270       .  S
In300       O308   2.231   1_554  S
In300       O309   2.226       .  S
In300       O312   2.276   1_554  S
C301        O307   1.264       .  A
C301        O309   1.258       .  A
C301        C918   1.476       .  S
O302        C310   1.261       .  A
O303        C310   1.261   1_556  A
C304        O311   1.258   1_554  A
C304        O305   1.260       .  A
C304       C1609   1.490       .  S
C306        O308   1.258       .  A
C306        O312   1.264       .  A
C306       C1029   1.488       .  S
C310        C878   1.470       .  S
In313       O315   2.240       .  S
In313       O316   2.249       .  S
In313       O324   2.251       .  S
In313       O318   2.250       .  S
In313       O320   2.265       .  S
In313       O321   2.238       .  S
In313       O322   2.235       .  S
In313       O325   2.251       .  S
C314        O320   1.260       .  A
C314        O322   1.257       .  A
C314        C789   1.479       .  S
O315        C323   1.262       .  A
O316        C323   1.262       .  A
C317        O324   1.262       .  A
C317        O318   1.261       .  A
C317        C809   1.486       .  S
C319        O321   1.258       .  A
C319        O325   1.261       .  A
C319        C849   1.476       .  S
C323        C838   1.477       .  S
In326       O328   2.262       .  S
In326       O329   2.256       .  S
In326       O337   2.248       .  S
In326       O331   2.266       .  S
In326       O333   2.255       .  S
In326       O334   2.254       .  S
In326       O335   2.245       .  S
In326       O338   2.250       .  S
C327        O333   1.262       .  A
C327        O335   1.260       .  A
C327        C758   1.485       .  S
O328        C336   1.260       .  A
O329        C336   1.260       .  A
C330        O337   1.259       .  A
C330        O331   1.261       .  A
C330        C769   1.484       .  S
C332        O334   1.261       .  A
C332        O338   1.259       .  A
C332        C829   1.487       .  S
C336       C1078   1.493       .  S
In339       O341   2.249       .  S
In339       O342   2.241       .  S
In339       O350   2.251       .  S
In339       O344   2.247       .  S
In339       O346   2.247       .  S
In339       O347   2.261       .  S
In339       O348   2.236       .  S
In339       O351   2.228       .  S
C340        O346   1.263       .  A
C340        O348   1.261       .  A
C340        C798   1.483       .  S
O341        C349   1.261       .  A
O342        C349   1.262       .  A
C343        O350   1.260       .  A
C343        O344   1.259       .  A
C343        C698   1.485       .  S
C345        O347   1.263       .  A
C345        O351   1.259       .  A
C345        C718   1.480       .  S
C349        C729   1.476       .  S
In352       O354   2.246       .  S
In352       O355   2.246       .  S
In352       O363   2.254       .  S
In352       O357   2.247       .  S
In352       O359   2.248       .  S
In352       O360   2.251       .  S
In352       O361   2.241       .  S
In352       O364   2.252       .  S
C353        O359   1.261       .  A
C353        O361   1.260       .  A
C353        C749   1.479       .  S
O354        C362   1.261       .  A
O355        C362   1.261       .  A
C356        O363   1.260       .  A
C356        O357   1.258       .  A
C356        C678   1.483       .  S
C358        O360   1.259       .  A
C358        O364   1.259       .  A
C358        C929   1.482       .  S
C362        C709   1.479       .  S
In365       O367   2.240   1_554  S
In365       O368   2.234       .  S
In365       O376   2.255       .  S
In365       O370   2.267   1_554  S
In365       O372   2.268   1_554  S
In365       O373   2.248       .  S
In365       O374   2.233   1_554  S
In365       O377   2.256       .  S
C366        O372   1.263       .  A
C366        O374   1.259       .  A
C366        C818   1.483       .  S
O367        C375   1.262   1_556  A
O368        C375   1.262       .  A
C369        O376   1.258       .  A
C369        O370   1.261   1_554  A
C369       C1349   1.492       .  S
C371        O373   1.257       .  A
C371        O377   1.261       .  A
C371        C689   1.479       .  S
C375        C649   1.477       .  S
In378       O380   2.238   1_556  S
In378       O381   2.237       .  S
In378       O389   2.261       .  S
In378       O383   2.270   1_556  S
In378       O385   2.274   1_556  S
In378       O386   2.219       .  S
In378       O387   2.229   1_556  S
In378       O390   2.273       .  S
C379        O385   1.266       .  A
C379        O387   1.259       .  A
C379        C669   1.493       .  S
O380        C388   1.259   1_554  A
O381        C388   1.258       .  A
C382        O389   1.258       .  A
C382        O383   1.259   1_556  A
C382       C1438   1.486       .  S
C384        O386   1.257       .  A
C384        O390   1.265       .  A
C384        C778   1.476       .  S
C388        C658   1.474       .  S
In391       O393   2.247       .  S
In391       O394   2.249       .  S
In391       O402   2.245       .  S
In391       O396   2.243       .  S
In391       O398   2.247       .  S
In391       O399   2.235       .  S
In391       O400   2.235       .  S
In391       O403   2.254       .  S
C392        O398   1.260       .  A
C392        O400   1.259       .  A
C392        C589   1.470       .  S
O393        C401   1.259       .  A
O394        C401   1.259       .  A
C395        O402   1.260       .  A
C395        O396   1.258       .  A
C395        C609   1.478       .  S
C397        O399   1.259       .  A
C397        O403   1.261       .  A
C397       C1009   1.478       .  S
C401        C638   1.476       .  S
In404       O406   2.237       .  S
In404       O407   2.247       .  S
In404       O415   2.245       .  S
In404       O409   2.240       .  S
In404       O411   2.257       .  S
In404       O412   2.249       .  S
In404       O413   2.240       .  S
In404       O416   2.232       .  S
C405        O411   1.262       .  A
C405        O413   1.258       .  A
C405        C549   1.483       .  S
O406        C414   1.261       .  A
O407        C414   1.261       .  A
C408        O415   1.262       .  A
C408        O409   1.262       .  A
C408        C889   1.480       .  S
C410        O412   1.261       .  A
C410        O416   1.259       .  A
C410        C598   1.482       .  S
C414        C569   1.482       .  S
In417       O419   2.223   1_554  S
In417       O420   2.237       .  S
In417       O428   2.246       .  S
In417       O422   2.245   1_554  S
In417       O424   2.259   1_554  S
In417       O425   2.219       .  S
In417       O426   2.221   1_554  S
In417       O429   2.256       .  S
C418        O424   1.262       .  A
C418        O426   1.257       .  A
C418        C618   1.479       .  S
O419        C427   1.260   1_556  A
O420        C427   1.261       .  A
C421        O428   1.258       .  A
C421        O422   1.259   1_554  A
C421       C1158   1.484       .  S
C423        O425   1.260       .  A
C423        O429   1.263       .  A
C423        C578   1.472       .  S
C427        C538   1.466       .  S
In430       O432   2.260       .  S
In430       O433   2.243       .  S
In430       O441   2.244       .  S
In430       O435   2.245       .  S
In430       O437   2.266       .  S
In430       O438   2.241       .  S
In430       O439   2.226       .  S
In430       O442   2.235       .  S
C431        O437   1.260       .  A
C431        O439   1.256       .  A
C431        C498   1.475       .  S
O432        C440   1.260       .  A
O433        C440   1.257       .  A
C434        O441   1.261       .  A
C434        O435   1.260       .  A
C434        C509   1.474       .  S
C436        O438   1.262       .  A
C436        O442   1.262       .  A
C436        C629   1.480       .  S
C440        C858   1.481       .  S
In443       O445   2.246       .  S
In443       O446   2.247       .  S
In443       O454   2.258       .  S
In443       O448   2.251       .  S
In443       O450   2.251       .  S
In443       O451   2.236       .  S
In443       O452   2.231       .  S
In443       O455   2.255       .  S
C444        O450   1.262       .  A
C444        O452   1.258       .  A
C444        C489   1.474       .  S
O445        C453   1.259       .  A
O446        C453   1.260       .  A
C447        O454   1.259       .  A
C447        O448   1.257       .  A
C447        C478   1.483       .  S
C449        O451   1.259       .  A
C449        O455   1.262       .  A
C449        C738   1.480       .  S
C453        C558   1.477       .  S
In456       O458   2.252   1_556  S
In456       O459   2.229       .  S
In456       O467   2.252       .  S
In456       O461   2.243   1_556  S
In456       O463   2.268   1_556  S
In456       O464   2.238       .  S
In456       O465   2.231   1_556  S
In456       O468   2.256       .  S
C457        O463   1.262       .  A
C457        O465   1.256       .  A
C457        C469   1.483       .  S
O458        C466   1.259       .  A
O459        C466   1.259   1_556  A
C460        O467   1.261       .  A
C460        O461   1.261   1_556  A
C460       C1138   1.483       .  S
C462        O464   1.259       .  A
C462        O468   1.262       .  A
C462        C518   1.481       .  S
C466        C529   1.479       .  S
C469        C470   1.414       .  A
C469        C474   1.414       .  A
C470        C471   1.410       .  A
C470       Br482   1.930       .  S
C471        C472   1.409       .  A
C471       Br486   1.929       .  S
C472        C475   1.486       .  S
C472        C473   1.407       .  A
C473        C474   1.407       .  A
C473       Br481   1.931       .  S
C474       Br485   1.931       .  S
C475        C476   1.409       .  A
C475        C480   1.408       .  A
C476        C477   1.407       .  A
C476       Br487   1.931       .  S
C477        C478   1.414       .  A
C477       Br483   1.932       .  S
C478        C479   1.415       .  A
C479        C480   1.409       .  A
C479       Br488   1.931       .  S
C480       Br484   1.929       .  S
C489        C490   1.412       .  A
C489        C494   1.411       .  A
C490        C491   1.405       .  A
C490       Br502   1.933       .  S
C491        C492   1.408       .  A
C491       Br506   1.932       .  S
C492        C495   1.480       .  S
C492        C493   1.408       .  A
C493        C494   1.407       .  A
C493       Br501   1.928       .  S
C494       Br505   1.931       .  S
C495        C496   1.409       .  A
C495        C500   1.407       .  A
C496        C497   1.409       .  A
C496       Br507   1.929       .  S
C497        C498   1.413       .  A
C497       Br503   1.930       .  S
C498        C499   1.411       .  A
C499        C500   1.403       .  A
C499       Br508   1.932       .  S
C500       Br504   1.931       .  S
C509        C510   1.411       .  A
C509        C514   1.410       .  A
C510        C511   1.406       .  A
C510       Br522   1.932       .  S
C511        C512   1.409       .  A
C511       Br526   1.931       .  S
C512        C515   1.483       .  S
C512        C513   1.408       .  A
C513        C514   1.408       .  A
C513       Br521   1.928       .  S
C514       Br525   1.929       .  S
C515        C516   1.407       .  A
C515        C520   1.407       .  A
C516        C517   1.408       .  A
C516       Br527   1.930       .  S
C517        C518   1.412       .  A
C517       Br523   1.930       .  S
C518        C519   1.414       .  A
C519        C520   1.407       .  A
C519       Br528   1.929       .  S
C520       Br524   1.931       .  S
C529        C530   1.414   1_554  A
C529        C534   1.417       .  A
C530        C531   1.403       .  A
C530       Br542   1.933       .  S
C531        C532   1.406   1_556  A
C531       Br546   1.933       .  S
C532        C535   1.477       .  S
C532        C533   1.405       .  A
C533        C534   1.407       .  A
C533       Br541   1.930       .  S
C534       Br545   1.931       .  S
C535        C536   1.408       .  A
C535        C540   1.409       .  A
C536        C537   1.405       .  A
C536       Br547   1.929   1_554  S
C537        C538   1.409       .  A
C537       Br543   1.931   1_554  S
C538        C539   1.408       .  A
C539        C540   1.403       .  A
C539       Br548   1.931       .  S
C540       Br544   1.931       .  S
C549        C550   1.415       .  A
C549        C554   1.417       .  A
C550        C551   1.408       .  A
C550       Br562   1.931       .  S
C551        C552   1.407       .  A
C551       Br566   1.931       .  S
C552        C555   1.483       .  S
C552        C553   1.406       .  A
C553        C554   1.407       .  A
C553       Br561   1.932       .  S
C554       Br565   1.932       .  S
C555        C556   1.407       .  A
C555        C560   1.408       .  A
C556        C557   1.407       .  A
C556       Br567   1.930       .  S
C557        C558   1.413       .  A
C557       Br563   1.931       .  S
C558        C559   1.412       .  A
C559        C560   1.407       .  A
C559       Br568   1.931       .  S
C560       Br564   1.930       .  S
C569        C570   1.415       .  A
C569        C574   1.415       .  A
C570        C571   1.405       .  A
C570       Br582   1.933       .  S
C571        C572   1.407       .  A
C571       Br586   1.933       .  S
C572        C575   1.482       .  S
C572        C573   1.407       .  A
C573        C574   1.410       .  A
C573       Br581   1.929       .  S
C574       Br585   1.930       .  S
C575        C576   1.408       .  A
C575        C580   1.409       .  A
C576        C577   1.405       .  A
C576       Br587   1.930       .  S
C577        C578   1.409       .  A
C577       Br583   1.931       .  S
C578        C579   1.410       .  A
C579        C580   1.408       .  A
C579       Br588   1.930       .  S
C580       Br584   1.929       .  S
C589        C590   1.409       .  A
C589        C594   1.410       .  A
C590        C591   1.406       .  A
C590       Br602   1.930       .  S
C591        C592   1.409       .  A
C591       Br606   1.930       .  S
C592        C595   1.479       .  S
C592        C593   1.407       .  A
C593        C594   1.404       .  A
C593       Br601   1.930       .  S
C594       Br605   1.929       .  S
C595        C596   1.405       .  A
C595        C600   1.406       .  A
C596        C597   1.408       .  A
C596       Br607   1.930       .  S
C597        C598   1.417       .  A
C597       Br603   1.931       .  S
C598        C599   1.417       .  A
C599        C600   1.405       .  A
C599       Br608   1.933       .  S
C600       Br604   1.934       .  S
C609        C610   1.412       .  A
C609        C614   1.414       .  A
C610        C611   1.406       .  A
C610       Br622   1.927       .  S
C611        C612   1.407       .  A
C611       Br626   1.931       .  S
C612        C615   1.480       .  S
C612        C613   1.407       .  A
C613        C614   1.406       .  A
C613       Br621   1.932       .  S
C614       Br625   1.932       .  S
C615        C616   1.408       .  A
C615        C620   1.407       .  A
C616        C617   1.408       .  A
C616       Br627   1.930       .  S
C617        C618   1.413       .  A
C617       Br623   1.930       .  S
C618        C619   1.416       .  A
C619        C620   1.404       .  A
C619       Br628   1.935       .  S
C620       Br624   1.934       .  S
C629        C630   1.415       .  A
C629        C634   1.414       .  A
C630        C631   1.406       .  A
C630       Br642   1.933       .  S
C631        C632   1.407       .  A
C631       Br646   1.932       .  S
C632        C635   1.482       .  S
C632        C633   1.407       .  A
C633        C634   1.408       .  A
C633       Br641   1.930       .  S
C634       Br645   1.932       .  S
C635        C636   1.408       .  A
C635        C640   1.408       .  A
C636        C637   1.406       .  A
C636       Br647   1.931       .  S
C637        C638   1.411       .  A
C637       Br643   1.929       .  S
C638        C639   1.412       .  A
C639        C640   1.407       .  A
C639       Br648   1.930       .  S
C640       Br644   1.930       .  S
C649        C650   1.414       .  A
C649        C654   1.413   1_554  A
C650        C651   1.405       .  A
C650       Br662   1.933       .  S
C651        C652   1.407   1_554  A
C651       Br666   1.933       .  S
C652        C655   1.478       .  S
C652        C653   1.406       .  A
C653        C654   1.407       .  A
C653       Br661   1.930       .  S
C654       Br665   1.928       .  S
C655        C656   1.407   1_556  A
C655        C660   1.407       .  A
C656        C657   1.405       .  A
C656       Br667   1.929       .  S
C657        C658   1.412   1_554  A
C657       Br663   1.933       .  S
C658        C659   1.414       .  A
C659        C660   1.405       .  A
C659       Br668   1.933       .  S
C660       Br664   1.931       .  S
C669        C670   1.419       .  A
C669        C674   1.417       .  A
C670        C671   1.408       .  A
C670       Br682   1.934       .  S
C671        C672   1.407       .  A
C671       Br686   1.934       .  S
C672        C675   1.490       .  S
C672        C673   1.409       .  A
C673        C674   1.413       .  A
C673       Br681   1.929       .  S
C674       Br685   1.930       .  S
C675        C676   1.409       .  A
C675        C680   1.409       .  A
C676        C677   1.409       .  A
C676       Br687   1.929       .  S
C677        C678   1.414       .  A
C677       Br683   1.933       .  S
C678        C679   1.413       .  A
C679        C680   1.409       .  A
C679       Br688   1.931       .  S
C680       Br684   1.929       .  S
C689        C690   1.412       .  A
C689        C694   1.412       .  A
C690        C691   1.409       .  A
C690       Br702   1.929       .  S
C691        C692   1.410       .  A
C691       Br706   1.931       .  S
C692        C695   1.486       .  S
C692        C693   1.408       .  A
C693        C694   1.407       .  A
C693       Br701   1.928       .  S
C694       Br705   1.932       .  S
C695        C696   1.408       .  A
C695        C700   1.407       .  A
C696        C697   1.409       .  A
C696       Br707   1.932       .  S
C697        C698   1.417       .  A
C697       Br703   1.934       .  S
C698        C699   1.415       .  A
C699        C700   1.409       .  A
C699       Br708   1.931       .  S
C700       Br704   1.929       .  S
C709        C710   1.412       .  A
C709        C714   1.412       .  A
C710        C711   1.408       .  A
C710       Br722   1.933       .  S
C711        C712   1.409       .  A
C711       Br726   1.931       .  S
C712        C715   1.486       .  S
C712        C713   1.409       .  A
C713        C714   1.408       .  A
C713       Br721   1.929       .  S
C714       Br725   1.930       .  S
C715        C716   1.409       .  A
C715        C720   1.408       .  A
C716        C717   1.409       .  A
C716       Br727   1.930       .  S
C717        C718   1.412       .  A
C717       Br723   1.929       .  S
C718        C719   1.413       .  A
C719        C720   1.407       .  A
C719       Br728   1.934       .  S
C720       Br724   1.929       .  S
C729        C730   1.412       .  A
C729        C734   1.409       .  A
C730        C731   1.407       .  A
C730       Br742   1.930       .  S
C731        C732   1.409       .  A
C731       Br746   1.931       .  S
C732        C735   1.483       .  S
C732        C733   1.408       .  A
C733        C734   1.407       .  A
C733       Br741   1.928       .  S
C734       Br745   1.929       .  S
C735        C736   1.407       .  A
C735        C740   1.408       .  A
C736        C737   1.406       .  A
C736       Br747   1.932       .  S
C737        C738   1.414       .  A
C737       Br743   1.932       .  S
C738        C739   1.412       .  A
C739        C740   1.409       .  A
C739       Br748   1.929       .  S
C740       Br744   1.929       .  S
C749        C750   1.412       .  A
C749        C754   1.413       .  A
C750        C751   1.407       .  A
C750       Br762   1.933       .  S
C751        C752   1.409       .  A
C751       Br766   1.930       .  S
C752        C755   1.486       .  S
C752        C753   1.408       .  A
C753        C754   1.409       .  A
C753       Br761   1.929       .  S
C754       Br765   1.931       .  S
C755        C756   1.407       .  A
C755        C760   1.408       .  A
C756        C757   1.408       .  A
C756       Br767   1.932       .  S
C757        C758   1.415       .  A
C757       Br763   1.931       .  S
C758        C759   1.415       .  A
C759        C760   1.410       .  A
C759       Br768   1.931       .  S
C760       Br764   1.929       .  S
C769        C770   1.412       .  A
C769        C774   1.413       .  A
C770        C771   1.412       .  A
C770       Br782   1.928       .  S
C771        C772   1.409       .  A
C771       Br786   1.928       .  S
C772        C775   1.489       .  S
C772        C773   1.409       .  A
C773        C774   1.408       .  A
C773       Br781   1.933       .  S
C774       Br785   1.932       .  S
C775        C776   1.410       .  A
C775        C780   1.409       .  A
C776        C777   1.409       .  A
C776       Br787   1.928       .  S
C777        C778   1.410       .  A
C777       Br783   1.932       .  S
C778        C779   1.409       .  A
C779        C780   1.408       .  A
C779       Br788   1.929       .  S
C780       Br784   1.928       .  S
C789        C790   1.411       .  A
C789        C794   1.413       .  A
C790        C791   1.406       .  A
C790       Br802   1.932       .  S
C791        C792   1.409       .  A
C791       Br806   1.931       .  S
C792        C795   1.485       .  S
C792        C793   1.409       .  A
C793        C794   1.410       .  A
C793       Br801   1.930       .  S
C794       Br805   1.930       .  S
C795        C796   1.407       .  A
C795        C800   1.409       .  A
C796        C797   1.408       .  A
C796       Br807   1.930       .  S
C797        C798   1.415       .  A
C797       Br803   1.932       .  S
C798        C799   1.415       .  A
C799        C800   1.407       .  A
C799       Br808   1.933       .  S
C800       Br804   1.932       .  S
C809        C810   1.415       .  A
C809        C814   1.414       .  A
C810        C811   1.408       .  A
C810       Br822   1.932       .  S
C811        C812   1.409       .  A
C811       Br826   1.932       .  S
C812        C815   1.489       .  S
C812        C813   1.409       .  A
C813        C814   1.410       .  A
C813       Br821   1.930       .  S
C814       Br825   1.928       .  S
C815        C816   1.409       .  A
C815        C820   1.410       .  A
C816        C817   1.407       .  A
C816       Br827   1.931       .  S
C817        C818   1.414       .  A
C817       Br823   1.935       .  S
C818        C819   1.413       .  A
C819        C820   1.411       .  A
C819       Br828   1.928       .  S
C820       Br824   1.930       .  S
C829        C830   1.416       .  A
C829        C834   1.416       .  A
C830        C831   1.410       .  A
C830       Br842   1.931       .  S
C831        C832   1.408       .  A
C831       Br846   1.930       .  S
C832        C835   1.487       .  S
C832        C833   1.408       .  A
C833        C834   1.409       .  A
C833       Br841   1.932       .  S
C834       Br845   1.932       .  S
C835        C836   1.410       .  A
C835        C840   1.410       .  A
C836        C837   1.408       .  A
C836       Br847   1.930       .  S
C837        C838   1.410       .  A
C837       Br843   1.930       .  S
C838        C839   1.409       .  A
C839        C840   1.408       .  A
C839       Br848   1.929       .  S
C840       Br844   1.928       .  S
C849        C850   1.410       .  A
C849        C854   1.412       .  A
C850        C851   1.408       .  A
C850       Br862   1.928       .  S
C851        C852   1.409       .  A
C851       Br866   1.928       .  S
C852        C855   1.485       .  S
C852        C853   1.409       .  A
C853        C854   1.406       .  A
C853       Br861   1.931       .  S
C854       Br865   1.933       .  S
C855        C856   1.408       .  A
C855        C860   1.408       .  A
C856        C857   1.408       .  A
C856       Br867   1.930       .  S
C857        C858   1.413       .  A
C857       Br863   1.931       .  S
C858        C859   1.414       .  A
C859        C860   1.408       .  A
C859       Br868   1.931       .  S
C860       Br864   1.930       .  S
C869        C870   1.416   1_554  A
C869        C874   1.417       .  A
C870        C871   1.408       .  A
C870       Br882   1.932       .  S
C871        C872   1.409   1_556  A
C871       Br886   1.934       .  S
C872        C875   1.481       .  S
C872        C873   1.405       .  A
C873        C874   1.406       .  A
C873       Br881   1.931       .  S
C874       Br885   1.931       .  S
C875        C876   1.410       .  A
C875        C880   1.409       .  A
C876        C877   1.405       .  A
C876       Br887   1.932       .  S
C877        C878   1.410       .  A
C877       Br883   1.930       .  S
C878        C879   1.409       .  A
C879        C880   1.406       .  A
C879       Br888   1.931   1_554  S
C880       Br884   1.930   1_554  S
C889        C890   1.411       .  A
C889        C894   1.413       .  A
C890        C891   1.409       .  A
C890       Br902   1.930       .  S
C891        C892   1.409       .  A
C891       Br906   1.928       .  S
C892        C895   1.487       .  S
C892        C893   1.409       .  A
C893        C894   1.408       .  A
C893       Br901   1.930       .  S
C894       Br905   1.933       .  S
C895        C896   1.409       .  A
C895        C900   1.408       .  A
C896        C897   1.411       .  A
C896       Br907   1.929       .  S
C897        C898   1.414       .  A
C897       Br903   1.931       .  S
C898        C899   1.414       .  A
C899        C900   1.406       .  A
C899       Br908   1.933       .  S
C900       Br904   1.933       .  S
C909        C910   1.414       .  A
C909        C914   1.413       .  A
C910        C911   1.408       .  A
C910       Br922   1.933       .  S
C911        C912   1.410       .  A
C911       Br926   1.932       .  S
C912        C915   1.490       .  S
C912        C913   1.410       .  A
C913        C914   1.411       .  A
C913       Br921   1.928       .  S
C914       Br925   1.931       .  S
C915        C916   1.411       .  A
C915        C920   1.410       .  A
C916        C917   1.412       .  A
C916       Br927   1.926       .  S
C917        C918   1.410       .  A
C917       Br923   1.931       .  S
C918        C919   1.409       .  A
C919        C920   1.407       .  A
C919       Br928   1.931       .  S
C920       Br924   1.929       .  S
C929        C930   1.413       .  A
C929        C934   1.413       .  A
C930        C931   1.408       .  A
C930       Br942   1.932       .  S
C931        C932   1.409       .  A
C931       Br946   1.931       .  S
C932        C935   1.490       .  S
C932        C933   1.410       .  A
C933        C934   1.411       .  A
C933       Br941   1.927       .  S
C934       Br945   1.932       .  S
C935        C936   1.410       .  A
C935        C940   1.410       .  A
C936        C937   1.408       .  A
C936       Br947   1.929       .  S
C937        C938   1.412       .  A
C937       Br943   1.933       .  S
C938        C939   1.411       .  A
C939        C940   1.409       .  A
C939       Br948   1.932       .  S
C940       Br944   1.928       .  S
C949        C950   1.414       .  A
C949        C954   1.414       .  A
C950        C951   1.408       .  A
C950       Br962   1.931       .  S
C951        C952   1.407       .  A
C951       Br966   1.927       .  S
C952        C955   1.484       .  S
C952        C953   1.409       .  A
C953        C954   1.406       .  A
C953       Br961   1.933       .  S
C954       Br965   1.933       .  S
C955        C956   1.409       .  A
C955        C960   1.407       .  A
C956        C957   1.409       .  A
C956       Br967   1.929       .  S
C957        C958   1.410       .  A
C957       Br963   1.929       .  S
C958        C959   1.411       .  A
C959        C960   1.406       .  A
C959       Br968   1.932       .  S
C960       Br964   1.929       .  S
C969        C970   1.414       .  A
C969        C974   1.414       .  A
C970        C971   1.409       .  A
C970       Br982   1.930       .  S
C971        C972   1.408       .  A
C971       Br986   1.930       .  S
C972        C975   1.484       .  S
C972        C973   1.408       .  A
C973        C974   1.407       .  A
C973       Br981   1.932       .  S
C974       Br985   1.930       .  S
C975        C976   1.409       .  A
C975        C980   1.409       .  A
C976        C977   1.407       .  A
C976       Br987   1.930       .  S
C977        C978   1.412       .  A
C977       Br983   1.931       .  S
C978        C979   1.412       .  A
C979        C980   1.407       .  A
C979       Br988   1.932       .  S
C980       Br984   1.930       .  S
C989        C990   1.417       .  A
C989        C994   1.415       .  A
C990        C991   1.406       .  A
C990      Br1002   1.930       .  S
C991        C992   1.407       .  A
C991      Br1006   1.934       .  S
C992        C995   1.484       .  S
C992        C993   1.408       .  A
C993        C994   1.409       .  A
C993      Br1001   1.931       .  S
C994      Br1005   1.932       .  S
C995        C996   1.408       .  A
C995       C1000   1.409       .  A
C996        C997   1.408       .  A
C996      Br1007   1.930       .  S
C997        C998   1.414       .  A
C997      Br1003   1.931       .  S
C998        C999   1.413       .  A
C999       C1000   1.407       .  A
C999      Br1008   1.933       .  S
C1000     Br1004   1.932       .  S
C1009      C1010   1.413       .  A
C1009      C1014   1.412       .  A
C1010      C1011   1.404       .  A
C1010     Br1022   1.933       .  S
C1011      C1012   1.407       .  A
C1011     Br1026   1.932       .  S
C1012      C1015   1.483       .  S
C1012      C1013   1.408       .  A
C1013      C1014   1.409       .  A
C1013     Br1021   1.929       .  S
C1014     Br1025   1.927       .  S
C1015      C1016   1.408       .  A
C1015      C1020   1.406       .  A
C1016      C1017   1.409       .  A
C1016     Br1027   1.932       .  S
C1017      C1018   1.415       .  A
C1017     Br1023   1.931       .  S
C1018      C1019   1.412       .  A
C1019      C1020   1.407       .  A
C1019     Br1028   1.929       .  S
C1020     Br1024   1.929       .  S
C1029      C1030   1.417       .  A
C1029      C1034   1.415       .  A
C1030      C1031   1.407       .  A
C1030     Br1042   1.935       .  S
C1031      C1032   1.407       .  A
C1031     Br1046   1.932       .  S
C1032      C1035   1.490       .  S
C1032      C1033   1.410       .  A
C1033      C1034   1.413       .  A
C1033     Br1041   1.928       .  S
C1034     Br1045   1.929       .  S
C1035      C1036   1.410       .  A
C1035      C1040   1.410       .  A
C1036      C1037   1.410       .  A
C1036     Br1047   1.926       .  S
C1037      C1038   1.411       .  A
C1037     Br1043   1.930       .  S
C1038      C1039   1.412       .  A
C1039      C1040   1.408       .  A
C1039     Br1048   1.929       .  S
C1040     Br1044   1.930       .  S
C1049      C1050   1.411       .  A
C1049      C1054   1.413       .  A
C1050      C1051   1.404       .  A
C1050     Br1062   1.931       .  S
C1051      C1052   1.408       .  A
C1051     Br1066   1.930       .  S
C1052      C1055   1.484       .  S
C1052      C1053   1.409       .  A
C1053      C1054   1.410       .  A
C1053     Br1061   1.929       .  S
C1054     Br1065   1.930       .  S
C1055      C1056   1.408       .  A
C1055      C1060   1.407       .  A
C1056      C1057   1.409       .  A
C1056     Br1067   1.930       .  S
C1057      C1058   1.415       .  A
C1057     Br1063   1.931       .  S
C1058      C1059   1.414       .  A
C1059      C1060   1.406       .  A
C1059     Br1068   1.934       .  S
C1060     Br1064   1.930       .  S
C1069      C1070   1.410       .  A
C1069      C1074   1.411       .  A
C1070      C1071   1.410       .  A
C1070     Br1082   1.931       .  S
C1071      C1072   1.411       .  A
C1071     Br1086   1.928       .  S
C1072      C1075   1.491       .  S
C1072      C1073   1.410       .  A
C1073      C1074   1.407       .  A
C1073     Br1081   1.930       .  S
C1074     Br1085   1.932       .  S
C1075      C1076   1.408       .  A
C1075      C1080   1.408       .  A
C1076      C1077   1.410       .  A
C1076     Br1087   1.932       .  S
C1077      C1078   1.418       .  A
C1077     Br1083   1.933       .  S
C1078      C1079   1.417       .  A
C1079      C1080   1.411       .  A
C1079     Br1088   1.930       .  S
C1080     Br1084   1.931       .  S
C1089      C1090   1.414       .  A
C1089      C1094   1.413       .  A
C1090      C1091   1.409       .  A
C1090     Br1102   1.932       .  S
C1091      C1092   1.409       .  A
C1091     Br1106   1.931       .  S
C1092      C1095   1.487       .  S
C1092      C1093   1.408       .  A
C1093      C1094   1.409       .  A
C1093     Br1101   1.930       .  S
C1094     Br1105   1.932       .  S
C1095      C1096   1.408       .  A
C1095      C1100   1.411       .  A
C1096      C1097   1.405       .  A
C1096     Br1107   1.931       .  S
C1097      C1098   1.412       .  A
C1097     Br1103   1.933       .  S
C1098      C1099   1.411       .  A
C1099      C1100   1.412       .  A
C1099     Br1108   1.929       .  S
C1100     Br1104   1.928       .  S
C1109      C1110   1.413       .  A
C1109      C1114   1.413       .  A
C1110      C1111   1.410       .  A
C1110     Br1122   1.931       .  S
C1111      C1112   1.409       .  A
C1111     Br1126   1.929       .  S
C1112      C1115   1.485       .  S
C1112      C1113   1.408       .  A
C1113      C1114   1.406       .  A
C1113     Br1121   1.932       .  S
C1114     Br1125   1.930       .  S
C1115      C1116   1.406       .  A
C1115      C1120   1.408       .  A
C1116      C1117   1.407       .  A
C1116     Br1127   1.932       .  S
C1117      C1118   1.414       .  A
C1117     Br1123   1.924       .  S
C1118      C1119   1.416       .  A
C1119      C1120   1.410       .  A
C1119     Br1128   1.928       .  S
C1120     Br1124   1.931       .  S
C1129      C1130   1.415   1_556  A
C1129      C1134   1.413       .  A
C1130      C1131   1.405       .  A
C1130     Br1142   1.934       .  S
C1131      C1132   1.408   1_554  A
C1131     Br1146   1.934       .  S
C1132      C1135   1.483   1_655  S
C1132      C1133   1.408       .  A
C1133      C1134   1.410       .  A
C1133     Br1141   1.928       .  S
C1134     Br1145   1.929       .  S
C1135      C1136   1.407   1_556  A
C1135      C1140   1.407       .  A
C1136      C1137   1.408       .  A
C1136     Br1147   1.929       .  S
C1137      C1138   1.414   1_554  A
C1137     Br1143   1.929       .  S
C1138      C1139   1.417       .  A
C1139      C1140   1.407       .  A
C1139     Br1148   1.933       .  S
C1140     Br1144   1.933   1_455  S
C1149      C1150   1.410   1_556  A
C1149      C1154   1.412       .  A
C1150      C1151   1.409       .  A
C1150     Br1162   1.928       .  S
C1151      C1152   1.409       .  A
C1151     Br1166   1.928       .  S
C1152      C1155   1.486   1_655  S
C1152      C1153   1.409   1_554  A
C1153      C1154   1.406       .  A
C1153     Br1161   1.931       .  S
C1154     Br1165   1.934       .  S
C1155      C1156   1.407       .  A
C1155      C1160   1.408   1_554  A
C1156      C1157   1.408       .  A
C1156     Br1167   1.931       .  S
C1157      C1158   1.418       .  A
C1157     Br1163   1.935       .  S
C1158      C1159   1.414   1_554  A
C1159      C1160   1.409       .  A
C1159     Br1168   1.931       .  S
C1160     Br1164   1.929       .  S
C1169      C1170   1.412       .  A
C1169      C1174   1.412   1_556  A
C1170      C1171   1.405       .  A
C1170     Br1182   1.933       .  S
C1171      C1172   1.409       .  A
C1171     Br1186   1.931       .  S
C1172      C1175   1.481   1_556  S
C1172      C1173   1.407   1_556  A
C1173      C1174   1.407       .  A
C1173     Br1181   1.928       .  S
C1174     Br1185   1.931       .  S
C1175      C1176   1.407   1_554  A
C1175      C1180   1.408       .  A
C1176      C1177   1.407       .  A
C1176     Br1187   1.928       .  S
C1177      C1178   1.412   1_556  A
C1177     Br1183   1.932       .  S
C1178      C1179   1.413       .  A
C1179      C1180   1.406       .  A
C1179     Br1188   1.933       .  S
C1180     Br1184   1.932       .  S
C1189      C1190   1.415       .  A
C1189      C1194   1.415       .  A
C1190      C1191   1.406       .  A
C1190     Br1202   1.933       .  S
C1191      C1192   1.407       .  A
C1191     Br1206   1.932       .  S
C1192      C1195   1.486       .  S
C1192      C1193   1.408       .  A
C1193      C1194   1.411       .  A
C1193     Br1201   1.929       .  S
C1194     Br1205   1.927       .  S
C1195      C1196   1.408       .  A
C1195      C1200   1.407       .  A
C1196      C1197   1.410       .  A
C1196     Br1207   1.930       .  S
C1197      C1198   1.415       .  A
C1197     Br1203   1.931       .  S
C1198      C1199   1.416       .  A
C1199      C1200   1.407       .  A
C1199     Br1208   1.932       .  S
C1200     Br1204   1.931       .  S
C1209      C1210   1.412       .  A
C1209      C1214   1.414       .  A
C1210      C1211   1.405       .  A
C1210     Br1222   1.932       .  S
C1211      C1212   1.408       .  A
C1211     Br1226   1.932       .  S
C1212      C1215   1.484       .  S
C1212      C1213   1.408       .  A
C1213      C1214   1.411       .  A
C1213     Br1221   1.929       .  S
C1214     Br1225   1.929       .  S
C1215      C1216   1.408       .  A
C1215      C1220   1.408       .  A
C1216      C1217   1.406       .  A
C1216     Br1227   1.931       .  S
C1217      C1218   1.413       .  A
C1217     Br1223   1.932       .  S
C1218      C1219   1.413       .  A
C1219      C1220   1.409       .  A
C1219     Br1228   1.930       .  S
C1220     Br1224   1.929       .  S
C1229      C1230   1.413       .  A
C1229      C1234   1.414       .  A
C1230      C1231   1.408       .  A
C1230     Br1242   1.931       .  S
C1231      C1232   1.409       .  A
C1231     Br1246   1.930       .  S
C1232      C1235   1.488       .  S
C1232      C1233   1.409       .  A
C1233      C1234   1.409       .  A
C1233     Br1241   1.930       .  S
C1234     Br1245   1.931       .  S
C1235      C1236   1.409       .  A
C1235      C1240   1.409       .  A
C1236      C1237   1.410       .  A
C1236     Br1247   1.929       .  S
C1237      C1238   1.414       .  A
C1237     Br1243   1.929       .  S
C1238      C1239   1.414       .  A
C1239      C1240   1.408       .  A
C1239     Br1248   1.932       .  S
C1240     Br1244   1.932       .  S
C1249      C1250   1.412       .  A
C1249      C1254   1.413       .  A
C1250      C1251   1.407       .  A
C1250     Br1262   1.930       .  S
C1251      C1252   1.409       .  A
C1251     Br1266   1.932       .  S
C1252      C1255   1.486       .  S
C1252      C1253   1.409       .  A
C1253      C1254   1.410       .  A
C1253     Br1261   1.930       .  S
C1254     Br1265   1.930       .  S
C1255      C1256   1.410       .  A
C1255      C1260   1.410       .  A
C1256      C1257   1.406       .  A
C1256     Br1267   1.930       .  S
C1257      C1258   1.410       .  A
C1257     Br1263   1.934       .  S
C1258      C1259   1.411       .  A
C1259      C1260   1.408       .  A
C1259     Br1268   1.931       .  S
C1260     Br1264   1.929       .  S
C1269      C1270   1.414       .  A
C1269      C1274   1.414       .  A
C1270      C1271   1.406       .  A
C1270     Br1282   1.932       .  S
C1271      C1272   1.408       .  A
C1271     Br1286   1.933       .  S
C1272      C1275   1.482       .  S
C1272      C1273   1.406       .  A
C1273      C1274   1.408       .  A
C1273     Br1281   1.929       .  S
C1274     Br1285   1.930       .  S
C1275      C1276   1.408       .  A
C1275      C1280   1.407       .  A
C1276      C1277   1.406       .  A
C1276     Br1287   1.931       .  S
C1277      C1278   1.411       .  A
C1277     Br1283   1.932       .  S
C1278      C1279   1.411       .  A
C1279      C1280   1.407       .  A
C1279     Br1288   1.925       .  S
C1280     Br1284   1.929       .  S
C1289      C1290   1.413       .  A
C1289      C1294   1.412       .  A
C1290      C1291   1.405       .  A
C1290     Br1302   1.932       .  S
C1291      C1292   1.407       .  A
C1291     Br1306   1.931       .  S
C1292      C1295   1.482       .  S
C1292      C1293   1.409       .  A
C1293      C1294   1.408       .  A
C1293     Br1301   1.929       .  S
C1294     Br1305   1.930       .  S
C1295      C1296   1.408       .  A
C1295      C1300   1.409       .  A
C1296      C1297   1.404       .  A
C1296     Br1307   1.931       .  S
C1297      C1298   1.411       .  A
C1297     Br1303   1.932       .  S
C1298      C1299   1.412       .  A
C1299      C1300   1.408       .  A
C1299     Br1308   1.931       .  S
C1300     Br1304   1.930       .  S
C1309      C1310   1.408       .  A
C1309      C1314   1.409       .  A
C1310      C1311   1.407       .  A
C1310     Br1322   1.929       .  S
C1311      C1312   1.409       .  A
C1311     Br1326   1.928       .  S
C1312      C1315   1.484       .  S
C1312      C1313   1.410       .  A
C1313      C1314   1.407       .  A
C1313     Br1321   1.930       .  S
C1314     Br1325   1.931       .  S
C1315      C1316   1.409       .  A
C1315      C1320   1.407       .  A
C1316      C1317   1.409       .  A
C1316     Br1327   1.930       .  S
C1317      C1318   1.413       .  A
C1317     Br1323   1.930       .  S
C1318      C1319   1.415       .  A
C1319      C1320   1.407       .  A
C1319     Br1328   1.934       .  S
C1320     Br1324   1.930       .  S
C1329      C1330   1.415       .  A
C1329      C1334   1.414       .  A
C1330      C1331   1.406       .  A
C1330     Br1342   1.934       .  S
C1331      C1332   1.407       .  A
C1331     Br1346   1.931       .  S
C1332      C1335   1.482       .  S
C1332      C1333   1.407       .  A
C1333      C1334   1.407       .  A
C1333     Br1341   1.930       .  S
C1334     Br1345   1.931       .  S
C1335      C1336   1.407       .  A
C1335      C1340   1.408       .  A
C1336      C1337   1.406       .  A
C1336     Br1347   1.931       .  S
C1337      C1338   1.414       .  A
C1337     Br1343   1.932       .  S
C1338      C1339   1.413       .  A
C1339      C1340   1.407       .  A
C1339     Br1348   1.931       .  S
C1340     Br1344   1.930       .  S
C1349      C1350   1.417       .  A
C1349      C1354   1.417   1_554  A
C1350      C1351   1.411       .  A
C1350     Br1362   1.930       .  S
C1351      C1352   1.407       .  A
C1351     Br1366   1.929       .  S
C1352      C1355   1.490       .  S
C1352      C1353   1.409   1_554  A
C1353      C1354   1.411       .  A
C1353     Br1361   1.932       .  S
C1354     Br1365   1.931       .  S
C1355      C1356   1.410   1_565  A
C1355      C1360   1.409   1_565  A
C1356      C1357   1.412       .  A
C1356     Br1367   1.927   1_544  S
C1357      C1358   1.411       .  A
C1357     Br1363   1.928   1_554  S
C1358      C1359   1.415       .  A
C1359      C1360   1.408       .  A
C1359     Br1368   1.933       .  S
C1360     Br1364   1.933   1_545  S
C1369      C1370   1.415       .  A
C1369      C1374   1.415       .  A
C1370      C1371   1.406       .  A
C1370     Br1382   1.933       .  S
C1371      C1372   1.407       .  A
C1371     Br1386   1.933       .  S
C1372      C1375   1.484       .  S
C1372      C1373   1.407       .  A
C1373      C1374   1.410       .  A
C1373     Br1381   1.931       .  S
C1374     Br1385   1.926       .  S
C1375      C1376   1.408       .  A
C1375      C1380   1.408       .  A
C1376      C1377   1.410       .  A
C1376     Br1387   1.932       .  S
C1377      C1378   1.414       .  A
C1377     Br1383   1.928       .  S
C1378      C1379   1.413       .  A
C1379      C1380   1.405       .  A
C1379     Br1388   1.933       .  S
C1380     Br1384   1.932       .  S
C1389      C1390   1.415       .  A
C1389      C1394   1.413       .  A
C1390      C1391   1.410       .  A
C1390     Br1402   1.932       .  S
C1391      C1392   1.408       .  A
C1391     Br1406   1.929       .  S
C1392      C1395   1.486       .  S
C1392      C1393   1.408       .  A
C1393      C1394   1.407       .  A
C1393     Br1401   1.931       .  S
C1394     Br1405   1.932       .  S
C1395      C1396   1.409       .  A
C1395      C1400   1.408       .  A
C1396      C1397   1.409       .  A
C1396     Br1407   1.928       .  S
C1397      C1398   1.413       .  A
C1397     Br1403   1.931       .  S
C1398      C1399   1.412       .  A
C1399      C1400   1.407       .  A
C1399     Br1408   1.933       .  S
C1400     Br1404   1.930       .  S
C1409      C1410   1.415       .  A
C1409      C1414   1.418       .  A
C1410      C1411   1.413       .  A
C1410     Br1422   1.928       .  S
C1411      C1412   1.409       .  A
C1411     Br1426   1.929       .  S
C1412      C1415   1.491       .  S
C1412      C1413   1.407       .  A
C1413      C1414   1.408       .  A
C1413     Br1421   1.933       .  S
C1414     Br1425   1.934       .  S
C1415      C1416   1.408       .  A
C1415      C1420   1.408       .  A
C1416      C1417   1.411       .  A
C1416     Br1427   1.930       .  S
C1417      C1418   1.417       .  A
C1417     Br1423   1.931       .  S
C1418      C1419   1.416       .  A
C1419      C1420   1.409       .  A
C1419     Br1428   1.933       .  S
C1420     Br1424   1.931       .  S
C1429      C1430   1.419   1_556  A
C1429      C1434   1.418       .  A
C1430      C1431   1.412       .  A
C1430     Br1442   1.931       .  S
C1431      C1432   1.409   1_544  A
C1431     Br1446   1.932   1_545  S
C1432      C1435   1.493       .  S
C1432      C1433   1.407   1_565  A
C1433      C1434   1.411       .  A
C1433     Br1441   1.930   1_545  S
C1434     Br1445   1.932       .  S
C1435      C1436   1.410   1_556  A
C1435      C1440   1.410       .  A
C1436      C1437   1.412       .  A
C1436     Br1447   1.928       .  S
C1437      C1438   1.411   1_554  A
C1437     Br1443   1.926       .  S
C1438      C1439   1.415       .  A
C1439      C1440   1.410       .  A
C1439     Br1448   1.933       .  S
C1440     Br1444   1.931       .  S
C1449      C1450   1.412   1_556  A
C1449      C1454   1.414       .  A
C1450      C1451   1.406       .  A
C1450     Br1462   1.929       .  S
C1451      C1452   1.406       .  A
C1451     Br1466   1.930       .  S
C1452      C1455   1.478       .  S
C1452      C1453   1.407   1_554  A
C1453      C1454   1.405       .  A
C1453     Br1461   1.932       .  S
C1454     Br1465   1.932       .  S
C1455      C1456   1.406   1_554  A
C1455      C1460   1.407       .  A
C1456      C1457   1.406       .  A
C1456     Br1467   1.929       .  S
C1457      C1458   1.413   1_556  A
C1457     Br1463   1.930       .  S
C1458      C1459   1.414       .  A
C1459      C1460   1.404       .  A
C1459     Br1468   1.934       .  S
C1460     Br1464   1.933       .  S
C1469      C1470   1.415       .  A
C1469      C1474   1.414       .  A
C1470      C1471   1.409       .  A
C1470     Br1482   1.931       .  S
C1471      C1472   1.408       .  A
C1471     Br1486   1.931       .  S
C1472      C1475   1.484       .  S
C1472      C1473   1.407       .  A
C1473      C1474   1.406       .  A
C1473     Br1481   1.932       .  S
C1474     Br1485   1.932       .  S
C1475      C1476   1.409       .  A
C1475      C1480   1.409       .  A
C1476      C1477   1.407       .  A
C1476     Br1487   1.930       .  S
C1477      C1478   1.411       .  A
C1477     Br1483   1.931       .  S
C1478      C1479   1.411       .  A
C1479      C1480   1.407       .  A
C1479     Br1488   1.931       .  S
C1480     Br1484   1.930       .  S
C1489      C1490   1.413       .  A
C1489      C1494   1.412       .  A
C1490      C1491   1.407       .  A
C1490     Br1502   1.932       .  S
C1491      C1492   1.409       .  A
C1491     Br1506   1.931       .  S
C1492      C1495   1.486       .  S
C1492      C1493   1.410       .  A
C1493      C1494   1.409       .  A
C1493     Br1501   1.928       .  S
C1494     Br1505   1.932       .  S
C1495      C1496   1.409       .  A
C1495      C1500   1.407       .  A
C1496      C1497   1.411       .  A
C1496     Br1507   1.929       .  S
C1497      C1498   1.414       .  A
C1497     Br1503   1.928       .  S
C1498      C1499   1.418       .  A
C1499      C1500   1.407       .  A
C1499     Br1508   1.934       .  S
C1500     Br1504   1.932       .  S
C1509      C1510   1.414       .  A
C1509      C1514   1.414       .  A
C1510      C1511   1.409       .  A
C1510     Br1522   1.931       .  S
C1511      C1512   1.409       .  A
C1511     Br1526   1.929       .  S
C1512      C1515   1.488       .  S
C1512      C1513   1.409       .  A
C1513      C1514   1.409       .  A
C1513     Br1521   1.931       .  S
C1514     Br1525   1.932       .  S
C1515      C1516   1.409       .  A
C1515      C1520   1.409       .  A
C1516      C1517   1.411       .  A
C1516     Br1527   1.930       .  S
C1517      C1518   1.414       .  A
C1517     Br1523   1.930       .  S
C1518      C1519   1.413       .  A
C1519      C1520   1.407       .  A
C1519     Br1528   1.932       .  S
C1520     Br1524   1.931       .  S
C1529      C1530   1.415       .  A
C1529      C1534   1.416       .  A
C1530      C1531   1.406       .  A
C1530     Br1542   1.931       .  S
C1531      C1532   1.407       .  A
C1531     Br1546   1.933       .  S
C1532      C1535   1.486       .  S
C1532      C1533   1.408       .  A
C1533      C1534   1.411       .  A
C1533     Br1541   1.930       .  S
C1534     Br1545   1.931       .  S
C1535      C1536   1.408       .  A
C1535      C1540   1.407       .  A
C1536      C1537   1.411       .  A
C1536     Br1547   1.930       .  S
C1537      C1538   1.415       .  A
C1537     Br1543   1.931       .  S
C1538      C1539   1.413       .  A
C1539      C1540   1.406       .  A
C1539     Br1548   1.932       .  S
C1540     Br1544   1.930       .  S
C1549      C1550   1.414       .  A
C1549      C1554   1.412       .  A
C1550      C1551   1.406       .  A
C1550     Br1562   1.934       .  S
C1551      C1552   1.408       .  A
C1551     Br1566   1.933       .  S
C1552      C1555   1.485       .  S
C1552      C1553   1.408       .  A
C1553      C1554   1.410       .  A
C1553     Br1561   1.928       .  S
C1554     Br1565   1.929       .  S
C1555      C1556   1.408       .  A
C1555      C1560   1.409       .  A
C1556      C1557   1.409       .  A
C1556     Br1567   1.930       .  S
C1557      C1558   1.413       .  A
C1557     Br1563   1.930       .  S
C1558      C1559   1.411       .  A
C1559      C1560   1.407       .  A
C1559     Br1568   1.931       .  S
C1560     Br1564   1.930       .  S
C1569      C1570   1.416       .  A
C1569      C1574   1.417       .  A
C1570      C1571   1.410       .  A
C1570     Br1582   1.932       .  S
C1571      C1572   1.408       .  A
C1571     Br1586   1.930       .  S
C1572      C1575   1.488       .  S
C1572      C1573   1.408       .  A
C1573      C1574   1.409       .  A
C1573     Br1581   1.932       .  S
C1574     Br1585   1.932       .  S
C1575      C1576   1.409       .  A
C1575      C1580   1.409       .  A
C1576      C1577   1.409       .  A
C1576     Br1587   1.929       .  S
C1577      C1578   1.412       .  A
C1577     Br1583   1.930       .  S
C1578      C1579   1.412       .  A
C1579      C1580   1.408       .  A
C1579     Br1588   1.932       .  S
C1580     Br1584   1.930       .  S
C1589      C1590   1.409       .  A
C1589      C1594   1.408       .  A
C1590      C1591   1.406       .  A
C1590     Br1602   1.932       .  S
C1591      C1592   1.410       .  A
C1591     Br1606   1.930       .  S
C1592      C1595   1.487       .  S
C1592      C1593   1.411       .  A
C1593      C1594   1.408       .  A
C1593     Br1601   1.928       .  S
C1594     Br1605   1.929       .  S
C1595      C1596   1.407       .  A
C1595      C1600   1.407       .  A
C1596      C1597   1.409       .  A
C1596     Br1607   1.934       .  S
C1597      C1598   1.419       .  A
C1597     Br1603   1.932       .  S
C1598      C1599   1.418       .  A
C1599      C1600   1.410       .  A
C1599     Br1608   1.931       .  S
C1600     Br1604   1.931       .  S
C1609      C1610   1.416       .  A
C1609      C1614   1.415   1_554  A
C1610      C1611   1.410       .  A
C1610     Br1622   1.933       .  S
C1611      C1612   1.410       .  A
C1611     Br1626   1.932       .  S
C1612      C1615   1.495   1_554  S
C1612      C1613   1.410   1_554  A
C1613      C1614   1.412       .  A
C1613     Br1621   1.930       .  S
C1614     Br1625   1.929       .  S
C1615      C1616   1.410       .  A
C1615      C1620   1.410   1_556  A
C1616      C1617   1.409       .  A
C1616     Br1627   1.931       .  S
C1617      C1618   1.416       .  A
C1617     Br1623   1.936       .  S
C1618      C1619   1.414   1_556  A
C1619      C1620   1.412       .  A
C1619     Br1628   1.930       .  S
C1620     Br1624   1.929       .  S
C1629      C1630   1.417   1_554  A
C1629      C1634   1.416       .  A
C1630      C1631   1.409       .  A
C1630     Br1642   1.931       .  S
C1631      C1632   1.408   1_556  A
C1631     Br1646   1.932       .  S
C1632      C1635   1.488       .  S
C1632      C1633   1.408       .  A
C1633      C1634   1.410       .  A
C1633     Br1641   1.931       .  S
C1634     Br1645   1.931       .  S
C1635      C1636   1.411   1_554  A
C1635      C1640   1.409       .  A
C1636      C1637   1.412       .  A
C1636     Br1647   1.927       .  S
C1637      C1638   1.410   1_556  A
C1637     Br1643   1.927       .  S
C1638      C1639   1.410       .  A
C1639      C1640   1.405       .  A
C1639     Br1648   1.929       .  S
C1640     Br1644   1.933       .  S
C1649      C1650   1.413       .  A
C1649      C1654   1.412   1_554  A
C1650      C1651   1.407       .  A
C1650     Br1662   1.933       .  S
C1651      C1652   1.408       .  A
C1651     Br1666   1.932       .  S
C1652      C1655   1.481       .  S
C1652      C1653   1.407   1_554  A
C1653      C1654   1.406       .  A
C1653     Br1661   1.929       .  S
C1654     Br1665   1.931       .  S
C1655      C1656   1.407   1_554  A
C1655      C1660   1.406       .  A
C1656      C1657   1.407       .  A
C1656     Br1667   1.931       .  S
C1657      C1658   1.414       .  A
C1657     Br1663   1.930       .  S
C1658      C1659   1.415   1_556  A
C1659      C1660   1.408       .  A
C1659     Br1668   1.931       .  S
C1660     Br1664   1.930       .  S
C1669      C1670   1.413       .  A
C1669      C1674   1.416       .  A
C1670      C1671   1.409       .  A
C1670     Br1682   1.928       .  S
C1671      C1672   1.408       .  A
C1671     Br1686   1.929       .  S
C1672      C1675   1.489       .  S
C1672      C1673   1.409       .  A
C1673      C1674   1.409       .  A
C1673     Br1681   1.931       .  S
C1674     Br1685   1.933       .  S
C1675      C1676   1.410       .  A
C1675      C1680   1.410       .  A
C1676      C1677   1.409       .  A
C1676     Br1687   1.931       .  S
C1677      C1678   1.412       .  A
C1677     Br1683   1.931       .  S
C1678      C1679   1.411       .  A
C1679      C1680   1.409       .  A
C1679     Br1688   1.931       .  S
C1680     Br1684   1.929       .  S
C1689      C1690   1.415       .  A
C1689      C1694   1.416       .  A
C1690      C1691   1.409       .  A
C1690     Br1702   1.929       .  S
C1691      C1692   1.407       .  A
C1691     Br1706   1.929       .  S
C1692      C1695   1.481       .  S
C1692      C1693   1.405       .  A
C1693      C1694   1.404       .  A
C1693     Br1701   1.933       .  S
C1694     Br1705   1.934       .  S
C1695      C1696   1.407       .  A
C1695      C1700   1.407       .  A
C1696      C1697   1.405       .  A
C1696     Br1707   1.934       .  S
C1697      C1698   1.414       .  A
C1697     Br1703   1.929       .  S
C1698      C1699   1.414       .  A
C1699      C1700   1.408       .  A
C1699     Br1708   1.928       .  S
C1700     Br1704   1.931       .  S
C1709      C1710   1.413       .  A
C1709      C1714   1.414       .  A
C1710      C1711   1.412       .  A
C1710     Br1722   1.930       .  S
C1711      C1712   1.410       .  A
C1711     Br1726   1.928       .  S
C1712      C1715   1.487       .  S
C1712      C1713   1.407       .  A
C1713      C1714   1.405       .  A
C1713     Br1721   1.932       .  S
C1714     Br1725   1.931       .  S
C1715      C1716   1.410       .  A
C1715      C1720   1.410       .  A
C1716      C1717   1.409       .  A
C1716     Br1727   1.928       .  S
C1717      C1718   1.411       .  A
C1717     Br1723   1.929       .  S
C1718      C1719   1.412       .  A
C1719      C1720   1.407       .  A
C1719     Br1728   1.931       .  S
C1720     Br1724   1.933       .  S
C1729      C1730   1.415       .  A
C1729      C1734   1.416       .  A
C1730      C1731   1.410       .  A
C1730     Br1742   1.931       .  S
C1731      C1732   1.408       .  A
C1731     Br1746   1.931       .  S
C1732      C1735   1.483       .  S
C1732      C1733   1.407       .  A
C1733      C1734   1.406       .  A
C1733     Br1741   1.933       .  S
C1734     Br1745   1.934       .  S
C1735      C1736   1.408       .  A
C1735      C1740   1.407       .  A
C1736      C1737   1.408       .  A
C1736     Br1747   1.932       .  S
C1737      C1738   1.413       .  A
C1737     Br1743   1.928       .  S
C1738      C1739   1.415       .  A
C1739      C1740   1.408       .  A
C1739     Br1748   1.932       .  S
C1740     Br1744   1.930       .  S
C1749      C1750   1.414       .  A
C1749      C1754   1.413       .  A
C1750      C1751   1.408       .  A
C1750     Br1762   1.931       .  S
C1751      C1752   1.408       .  A
C1751     Br1766   1.930       .  S
C1752      C1755   1.487       .  S
C1752      C1753   1.409       .  A
C1753      C1754   1.409       .  A
C1753     Br1761   1.929       .  S
C1754     Br1765   1.931       .  S
C1755      C1756   1.409       .  A
C1755      C1760   1.409       .  A
C1756      C1757   1.410       .  A
C1756     Br1767   1.928       .  S
C1757      C1758   1.412       .  A
C1757     Br1763   1.931       .  S
C1758      C1759   1.413       .  A
C1759      C1760   1.407       .  A
C1759     Br1768   1.934       .  S
C1760     Br1764   1.931       .  S
C1769      C1770   1.414       .  A
C1769      C1774   1.414       .  A
C1770      C1771   1.407       .  A
C1770     Br1782   1.932       .  S
C1771      C1772   1.409       .  A
C1771     Br1786   1.932       .  S
C1772      C1775   1.484       .  S
C1772      C1773   1.407       .  A
C1773      C1774   1.408       .  A
C1773     Br1781   1.929       .  S
C1774     Br1785   1.931       .  S
C1775      C1776   1.410       .  A
C1775      C1780   1.409       .  A
C1776      C1777   1.410       .  A
C1776     Br1787   1.930       .  S
C1777      C1778   1.411       .  A
C1777     Br1783   1.930       .  S
C1778      C1779   1.409       .  A
C1779      C1780   1.404       .  A
C1779     Br1788   1.933       .  S
C1780     Br1784   1.929       .  S
C1789      C1790   1.413       .  A
C1789      C1794   1.413       .  A
C1790      C1791   1.410       .  A
C1790     Br1802   1.930       .  S
C1791      C1792   1.410       .  A
C1791     Br1806   1.931       .  S
C1792      C1795   1.487       .  S
C1792      C1793   1.409       .  A
C1793      C1794   1.407       .  A
C1793     Br1801   1.931       .  S
C1794     Br1805   1.932       .  S
C1795      C1796   1.408       .  A
C1795      C1800   1.409       .  A
C1796      C1797   1.406       .  A
C1796     Br1807   1.931       .  S
C1797      C1798   1.414       .  A
C1797     Br1803   1.933       .  S
C1798      C1799   1.414       .  A
C1799      C1800   1.411       .  A
C1799     Br1808   1.930       .  S
C1800     Br1804   1.930       .  S
C1809      C1810   1.414       .  A
C1809      C1814   1.410       .  A
C1810      C1811   1.408       .  A
C1810     Br1822   1.929       .  S
C1811      C1812   1.407       .  A
C1811     Br1826   1.931       .  S
C1812      C1815   1.482       .  S
C1812      C1813   1.408       .  A
C1813      C1814   1.406       .  A
C1813     Br1821   1.930       .  S
C1814     Br1825   1.929       .  S
C1815      C1816   1.409       .  A
C1815      C1820   1.407       .  A
C1816      C1817   1.406       .  A
C1816     Br1827   1.934       .  S
C1817      C1818   1.415       .  A
C1817     Br1823   1.934       .  S
C1818      C1819   1.414       .  A
C1819      C1820   1.408       .  A
C1819     Br1828   1.930       .  S
C1820     Br1824   1.930       .  S
C1829      C1830   1.415       .  A
C1829      C1834   1.414       .  A
C1830      C1831   1.406       .  A
C1830     Br1842   1.929       .  S
C1831      C1832   1.405       .  A
C1831     Br1846   1.931       .  S
C1832      C1835   1.477       .  S
C1832      C1833   1.406       .  A
C1833      C1834   1.405       .  A
C1833     Br1841   1.932       .  S
C1834     Br1845   1.933       .  S
C1835      C1836   1.408       .  A
C1835      C1840   1.407       .  A
C1836      C1837   1.408       .  A
C1836     Br1847   1.931       .  S
C1837      C1838   1.412       .  A
C1837     Br1843   1.930       .  S
C1838      C1839   1.411       .  A
C1839      C1840   1.403       .  A
C1839     Br1848   1.932       .  S
C1840     Br1844   1.932       .  S
C1849      C1850   1.417       .  A
C1849      C1854   1.414       .  A
C1850      C1851   1.408       .  A
C1850     Br1862   1.934       .  S
C1851      C1852   1.407       .  A
C1851     Br1866   1.932       .  S
C1852      C1855   1.491       .  S
C1852      C1853   1.410       .  A
C1853      C1854   1.413       .  A
C1853     Br1861   1.927       .  S
C1854     Br1865   1.930       .  S
C1855      C1856   1.411       .  A
C1855      C1860   1.410       .  A
C1856      C1857   1.409       .  A
C1856     Br1867   1.925       .  S
C1857      C1858   1.409       .  A
C1857     Br1863   1.932       .  S
C1858      C1859   1.413       .  A
C1859      C1860   1.408       .  A
C1859     Br1868   1.934       .  S
C1860     Br1864   1.930       .  S
C1869      C1870   1.416       .  A
C1869      C1874   1.414       .  A
C1870      C1871   1.407       .  A
C1870     Br1882   1.933       .  S
C1871      C1872   1.407       .  A
C1871     Br1886   1.932       .  S
C1872      C1875   1.484       .  S
C1872      C1873   1.407       .  A
C1873      C1874   1.408       .  A
C1873     Br1881   1.929       .  S
C1874     Br1885   1.931       .  S
C1875      C1876   1.409       .  A
C1875      C1880   1.408       .  A
C1876      C1877   1.407       .  A
C1876     Br1887   1.931       .  S
C1877      C1878   1.411       .  A
C1877     Br1883   1.930       .  S
C1878      C1879   1.411       .  A
C1879      C1880   1.406       .  A
C1879     Br1888   1.932       .  S
C1880     Br1884   1.928       .  S
C1889      C1890   1.410       .  A
C1889      C1894   1.410       .  A
C1890      C1891   1.405       .  A
C1890     Br1902   1.932       .  S
C1891      C1892   1.409       .  A
C1891     Br1906   1.932       .  S
C1892      C1895   1.485       .  S
C1892      C1893   1.410       .  A
C1893      C1894   1.410       .  A
C1893     Br1901   1.928       .  S
C1894     Br1905   1.928       .  S
C1895      C1896   1.408       .  A
C1895      C1900   1.408       .  A
C1896      C1897   1.408       .  A
C1896     Br1907   1.928       .  S
C1897      C1898   1.414       .  A
C1897     Br1903   1.932       .  S
C1898      C1899   1.415       .  A
C1899      C1900   1.408       .  A
C1899     Br1908   1.931       .  S
C1900     Br1904   1.933       .  S
