geometry optimzed in LAMMPS
_audit_creation_date              2020-11-30 
_audit_creation_method            'lammps2cif' 
_symmetry_space_group_name_H-M    'P1' 
_symmetry_Int_Tables_number       1 
_symmetry_cell_setting            triclinic 
loop_ 
_symmetry_equiv_pos_as_xyz 
  x,y,z 
_cell_length_a                    62.52107534 
_cell_length_b                    62.140231019949134 
_cell_length_c                    114.36073956554151 
_cell_angle_alpha                 90.07859603808107 
_cell_angle_beta                  89.95659806221175 
_cell_angle_gamma                 89.92932858393458 
loop_ 
_atom_site_label 
_atom_site_type_symbol 
_atom_site_fract_x 
_atom_site_fract_y 
_atom_site_fract_z 
_atom_site_charge 
N1          N  0.58641802  0.93017283  0.33039571    -0.27000
N2          N  0.58123165  0.93466129  0.31947484    -0.34800
C3          C  0.56270826  0.94559943  0.31939296     0.01400
C4          C  0.55595697  0.94841337  0.33082653     0.07400
C5          C  0.57128100  0.93814011  0.33757118    -0.05700
H6          H  0.55538778  0.95225118  0.31161380     0.08100
H7          H  0.57187773  0.93716942  0.34701153     0.09300
Cu8        Cu  0.60120990  0.92891963  0.30540286     0.44200
Cu9        Cu  0.61562779  0.91686965  0.33492031     0.42000
Cu10       Cu  0.65581419  0.91379144  0.31166683     0.43900
N11         N  0.62482422  0.92667410  0.29280533    -0.34400
N12         N  0.64494727  0.92160569  0.29503046    -0.28600
C13         C  0.65643047  0.92364660  0.28512821    -0.04700
C14         C  0.64276785  0.93000329  0.27623718     0.07500
C15         C  0.62291871  0.93194179  0.28146993     0.01300
H16         H  0.67353336  0.92123338  0.28450977     0.09000
H17         H  0.60837547  0.93788341  0.27750409     0.08000
N18         N  0.66221606  0.90895290  0.32930677    -0.35800
N19         N  0.64762067  0.90987007  0.33766991    -0.28000
C20         C  0.65741530  0.90893594  0.34811283    -0.03200
C21         C  0.67925120  0.90725553  0.34630046     0.05400
C22         C  0.68165908  0.90737684  0.33424826     0.03500
H23         H  0.64932434  0.91092882  0.35641811     0.08600
H24         H  0.69652240  0.90829097  0.32943355     0.07400
N25         N  0.89515926  0.99521597  0.40280132    -0.27000
N26         N  0.90383710  0.99537408  0.41333870    -0.34800
C27         C  0.92380421  0.00297622  0.41270371     0.01400
C28         C  0.92811588  0.00805140  0.40124124     0.07400
C29         C  0.90952845  0.00325345  0.39514074    -0.05700
H30         H  0.93420352  0.00538041  0.42016145     0.08100
H31         H  0.90664948  0.00554622  0.38589280     0.09300
Cu32       Cu  0.88877917  0.98641907  0.42847940     0.44200
Cu33       Cu  0.86428942  0.98338423  0.39999887     0.42000
Cu34       Cu  0.83912162  0.96068514  0.42689315     0.43900
N35         N  0.87400319  0.97409417  0.44298560    -0.34400
N36         N  0.85550627  0.96398298  0.44251726    -0.28600
C37         C  0.85083291  0.95628396  0.45321554    -0.04700
C38         C  0.86723808  0.96207598  0.46075808     0.07500
C39         C  0.88167879  0.97322895  0.45391244     0.01300
H40         H  0.83706099  0.94644039  0.45519340     0.09000
H41         H  0.89694403  0.97974710  0.45659553     0.08000
N42         N  0.82587403  0.95990437  0.41029807    -0.35800
N43         N  0.83443891  0.96822902  0.40071611    -0.28000
C44         C  0.82099249  0.96479133  0.39170997    -0.03200
C45         C  0.80318171  0.95391138  0.39584090     0.05400
C46         C  0.80696656  0.95092939  0.40761389     0.03500
H47         H  0.82414054  0.96954220  0.38276770     0.08600
H48         H  0.79660998  0.94297169  0.41383415     0.07400
N49         N  0.55688025  0.65260214  0.87572037    -0.27000
N50         N  0.54579444  0.65844802  0.88506264    -0.34800
C51         C  0.52836508  0.64593279  0.88591528     0.01400
C52         C  0.52849619  0.63143500  0.87674042     0.07400
C53         C  0.54694008  0.63591385  0.87051628    -0.05700
H54         H  0.51710270  0.64644223  0.89310671     0.08100
H55         H  0.55302325  0.62727181  0.86298830     0.09300
Cu56       Cu  0.55610256  0.68089308  0.89730454     0.44200
Cu57       Cu  0.58562344  0.66686291  0.87096929     0.42000
Cu58       Cu  0.60601305  0.70706312  0.89116977     0.43900
N59         N  0.57129349  0.70132953  0.90904511    -0.34400
N60         N  0.58961544  0.71096136  0.90668394    -0.28600
C61         C  0.59627697  0.72174565  0.91619026    -0.04700
C62         C  0.58156002  0.71856696  0.92504406     0.07500
C63         C  0.56577177  0.70576732  0.92016938     0.01300
H64         H  0.61100916  0.73079207  0.91667085     0.09000
H65         H  0.55181891  0.69936793  0.92454438     0.08000
N66         N  0.62171158  0.69771282  0.87612305    -0.35800
N67         N  0.61439027  0.68303353  0.86876995    -0.28000
C68         C  0.62920612  0.67946801  0.86046946    -0.03200
C69         C  0.64680194  0.69226074  0.86283129     0.05400
C70         C  0.64136008  0.70382185  0.87272463     0.03500
H71         H  0.62746610  0.66798416  0.85341151     0.08600
H72         H  0.65136746  0.71505750  0.87744824     0.07400
N73         N  0.88244804  0.65328056  0.81658976    -0.27000
N74         N  0.88999188  0.64416401  0.80698525    -0.34800
C75         C  0.90812119  0.63363665  0.80955468     0.01400
C76         C  0.91224880  0.63596697  0.82138000     0.07400
C77         C  0.89575140  0.64885434  0.82552688    -0.05700
H78         H  0.91697691  0.62387243  0.80337611     0.08100
H79         H  0.89315264  0.65417081  0.83442353     0.09300
Cu80       Cu  0.87429026  0.64350909  0.79109719     0.44200
Cu81       Cu  0.85273624  0.66822975  0.81743208     0.42000
Cu82       Cu  0.82001096  0.66119292  0.79142264     0.43900
N83         N  0.85425887  0.64106480  0.77680943    -0.34400
N84         N  0.83402909  0.64716383  0.77704265    -0.28600
C85         C  0.82503365  0.64308629  0.76661465    -0.04700
C86         C  0.84039866  0.63389135  0.75949905     0.07500
C87         C  0.85879402  0.63305237  0.76618127     0.01300
H88         H  0.80874554  0.64709338  0.76430421     0.09000
H89         H  0.87432534  0.62710946  0.76350870     0.08000
N90         N  0.80902570  0.67427094  0.80682438    -0.35800
N91         N  0.82078069  0.67722635  0.81628737    -0.28000
C92         C  0.80810289  0.68463141  0.82491068    -0.03200
C93         C  0.78743359  0.68655650  0.82062237     0.05400
C94         C  0.78867898  0.67957974  0.80915999     0.03500
H95         H  0.81337329  0.68750344  0.83379373     0.08600
H96         H  0.77557759  0.67710240  0.80314247     0.07400
N97         N  0.89863381  0.57618565  0.62604314    -0.27000
N98         N  0.88662920  0.56508528  0.63339376    -0.34800
C99         C  0.89441767  0.54501194  0.63425670     0.01400
C100        C  0.91236289  0.54342831  0.62725189     0.07400
C101        C  0.91451051  0.56344987  0.62209245    -0.05700
H102        H  0.88849884  0.53298698  0.64026819     0.08100
H103        H  0.92724657  0.56872049  0.61636147     0.09300
Cu104      Cu  0.86322335  0.57849934  0.64390258     0.44200
Cu105      Cu  0.89459170  0.60884718  0.62305103     0.42000
Cu106      Cu  0.85704722  0.63584978  0.64229190     0.43900
N107        N  0.84664772  0.59634957  0.65619141    -0.34400
N108        N  0.84439745  0.61744347  0.65557457    -0.28600
C109        C  0.83682174  0.62480656  0.66581403    -0.04700
C110        C  0.83417479  0.60751657  0.67328064     0.07500
C111        C  0.84060385  0.58972326  0.66686888     0.01300
H112        H  0.83580809  0.64166982  0.66809139     0.09000
H113        H  0.84277280  0.57351656  0.67009810     0.08000
N114        N  0.87532554  0.65148220  0.62993803    -0.35800
N115        N  0.88899922  0.64174700  0.62287225    -0.28000
C116        C  0.89912566  0.65668127  0.61642682    -0.03200
C117        C  0.89172531  0.67680516  0.61976508     0.05400
C118        C  0.87646477  0.67281322  0.62824402     0.03500
H119        H  0.91105559  0.65305677  0.60985994     0.08600
H120        H  0.86734658  0.68461003  0.63312514     0.07400
N121        N  0.96744436  0.92020145  0.59526489    -0.27000
N122        N  0.96281331  0.93442513  0.58705626    -0.34800
C123        C  0.97390855  0.95249010  0.58900099     0.01400
C124        C  0.98599429  0.94983175  0.59900156     0.07400
C125        C  0.98175221  0.92899566  0.60267087    -0.05700
H126        H  0.97390225  0.96620966  0.58318602     0.08100
H127        H  0.98886512  0.92069495  0.61002616     0.09300
Cu128      Cu  0.94265972  0.92935377  0.57304551     0.44200
Cu129      Cu  0.95463166  0.88935330  0.59548610     0.42000
Cu130      Cu  0.91467684  0.88037496  0.57241634     0.43900
N131        N  0.92155412  0.92176973  0.55981589    -0.34400
N132        N  0.91066150  0.90361623  0.55974459    -0.28600
C133        C  0.89889663  0.90259528  0.54993582    -0.04700
C134        C  0.90289356  0.92090194  0.54339075     0.07500
C135        C  0.91713666  0.93283535  0.55002175     0.01300
H136        H  0.88852326  0.88931788  0.54770075     0.09000
H137        H  0.92438918  0.94803550  0.54769055     0.08000
N138        N  0.92425887  0.85752265  0.58440410    -0.35800
N139        N  0.93874830  0.86043342  0.59267925    -0.28000
C140        C  0.94135605  0.84182536  0.59852448    -0.03200
C141        C  0.92812631  0.82647947  0.59354536     0.05400
C142        C  0.91734111  0.83711410  0.58474413     0.03500
H143        H  0.95223447  0.83957313  0.60577505     0.08600
H144        H  0.90513247  0.83062444  0.57905040     0.07400
N145        N  0.55977201  0.73344279  0.07027139    -0.27000
N146        N  0.55332454  0.72547376  0.06016217    -0.34800
C147        C  0.54318475  0.70681173  0.06201317     0.01400
C148        C  0.54348590  0.70253143  0.07386153     0.07400
C149        C  0.55382506  0.71995824  0.07888532    -0.05700
H150        H  0.53589265  0.69722863  0.05519110     0.08100
H151        H  0.55694695  0.72255049  0.08808677     0.09300
Cu152      Cu  0.55959613  0.73922086  0.04417386     0.44200
Cu153      Cu  0.57661842  0.76205368  0.07143112     0.42000
Cu154      Cu  0.59416842  0.78500433  0.04340151     0.43900
N155        N  0.57178293  0.75177594  0.02892929    -0.34400
N156        N  0.58514425  0.76818452  0.02855843    -0.28600
C157        C  0.59123861  0.77136998  0.01740583    -0.04700
C158        C  0.58093594  0.75634293  0.01042531     0.07500
C159        C  0.56888315  0.74412113  0.01807998     0.01300
H160        H  0.60276937  0.78330505  0.01469520     0.09000
H161        H  0.55891836  0.73045334  0.01595035     0.08000
N162        N  0.59906217  0.79931443  0.05955805    -0.35800
N163        N  0.59301442  0.79084286  0.06964349    -0.28000
C164        C  0.59919790  0.80389526  0.07837688    -0.03200
C165        C  0.60932751  0.82153337  0.07356385     0.05400
C166        C  0.60905059  0.81810131  0.06162421     0.03500
H167        H  0.59656813  0.80074585  0.08756523     0.08600
H168        H  0.61606742  0.82820194  0.05494719     0.07400
N169        N  0.65510602  0.03693807  0.14100860    -0.27000
N170        N  0.65721989  0.04311509  0.15201204    -0.34800
C171        C  0.64941112  0.06312328  0.15318400     0.01400
C172        C  0.64177897  0.07000345  0.14245169     0.07400
C173        C  0.64601769  0.05302659  0.13488143    -0.05700
H174        H  0.64816618  0.07155580  0.16144752     0.08100
H175        H  0.64225357  0.05206233  0.12566579     0.09300
Cu176      Cu  0.66757866  0.02346115  0.16548559     0.44200
Cu177      Cu  0.66152387  0.00577399  0.13534012     0.42000
Cu178      Cu  0.67527299  0.96788440  0.15849133     0.43900
N179        N  0.67303076  0.00012042  0.17804080    -0.34400
N180        N  0.67569949  0.97958045  0.17544781    -0.28600
C181        C  0.67618142  0.96811300  0.18540035    -0.04700
C182        C  0.67339705  0.98207017  0.19472433     0.07500
C183        C  0.67179122  0.00231149  0.18972602     0.01300
H184        H  0.67711127  0.95074569  0.18578423     0.09000
H185        H  0.66911138  0.01742826  0.19417170     0.08000
N186        N  0.67004572  0.95915958  0.14124769    -0.35800
N187        N  0.66495355  0.97279427  0.13282435    -0.28000
C188        C  0.66053124  0.96156852  0.12304887    -0.03200
C189        C  0.66266468  0.93985157  0.12549111     0.05400
C190        C  0.66902774  0.93897207  0.13706204     0.03500
H191        H  0.65500644  0.96861749  0.11495568     0.08600
H192        H  0.67203689  0.92469597  0.14221252     0.07400
N193        N  0.39397215  0.50170726  0.90059070    -0.27000
N194        N  0.40565700  0.50007724  0.91016195    -0.34800
C195        C  0.42510736  0.50835640  0.90810936     0.01400
C196        C  0.42583794  0.51580200  0.89669277     0.07400
C197        C  0.40569104  0.51131142  0.89220602    -0.05700
H198        H  0.43730104  0.51026613  0.91474423     0.08100
H199        H  0.39933569  0.51637921  0.88385443     0.09300
Cu200      Cu  0.39343901  0.49125588  0.92626614     0.44200
Cu201      Cu  0.36167557  0.49395675  0.90024639     0.42000
Cu202      Cu  0.33618358  0.48515061  0.92866066     0.43900
N203        N  0.37762293  0.48688661  0.94197733    -0.34400
N204        N  0.35667164  0.48476123  0.94294252    -0.28600
C205        C  0.35148461  0.48367167  0.95435507    -0.04700
C206        C  0.37011746  0.48512768  0.96086919     0.07500
C207        C  0.38631902  0.48730301  0.95270974     0.01300
H208        H  0.33528957  0.48293313  0.95764376     0.09000
H209        H  0.40316256  0.48960913  0.95445016     0.08000
N210        N  0.31979746  0.48618581  0.91287560    -0.35800
N211        N  0.32914474  0.48873864  0.90259533    -0.28000
C212        C  0.31403828  0.48933646  0.89425644    -0.03200
C213        C  0.29413807  0.48710548  0.89946938     0.05400
C214        C  0.29848079  0.48532013  0.91132448     0.03500
H215        H  0.31730605  0.49191318  0.88506454     0.08600
H216        H  0.28704417  0.48459138  0.91840372     0.07400
N217        N  0.05783482  0.51853346  0.84344674    -0.27000
N218        N  0.04829491  0.51076114  0.83404042    -0.34800
C219        C  0.02845231  0.51893553  0.83334325     0.01400
C220        C  0.02510901  0.53250426  0.84278623     0.07400
C221        C  0.04421589  0.53195848  0.84896213    -0.05700
H222        H  0.01794375  0.51662265  0.82593127     0.08100
H223        H  0.04835154  0.54158778  0.85652451     0.09300
Cu224      Cu  0.06352838  0.49232437  0.82145985     0.44200
Cu225      Cu  0.08986445  0.51254651  0.84730245     0.42000
Cu226      Cu  0.11978566  0.48298615  0.82481733     0.43900
N227        N  0.08198313  0.47653682  0.80910906    -0.34400
N228        N  0.10268459  0.47285039  0.81030167    -0.28600
C229        C  0.11001946  0.46302587  0.80058385    -0.04700
C230        C  0.09313760  0.46085245  0.79285449     0.07500
C231        C  0.07559561  0.46937457  0.79859782     0.01300
H232        H  0.12651908  0.45850504  0.79909518     0.09000
H233        H  0.05941739  0.47055820  0.79532025     0.08000
N234        N  0.13301549  0.49471408  0.84017832    -0.35800
N235        N  0.12229964  0.50502231  0.84844561    -0.28000
C236        C  0.13560242  0.50899428  0.85745555    -0.03200
C237        C  0.15573310  0.50102357  0.85467899     0.05400
C238        C  0.15334277  0.49203524  0.84366493     0.03500
H239        H  0.13063616  0.51627489  0.86561549     0.08600
H240        H  0.16542430  0.48367393  0.83862478     0.07400
N241        N  0.43931902  0.54635648  0.09857590    -0.27000
N242        N  0.43247383  0.55334857  0.08834045    -0.34800
C243        C  0.43983769  0.57331968  0.08654287     0.01400
C244        C  0.45220823  0.57923794  0.09602664     0.07400
C245        C  0.45120936  0.56185093  0.10360528    -0.05700
H246        H  0.43782788  0.58216621  0.07847260     0.08100
H247        H  0.45933804  0.56008060  0.11189487     0.09300
Cu248      Cu  0.41736700  0.53434740  0.07615162     0.44200
Cu249      Cu  0.43524879  0.51477762  0.10403566     0.42000
Cu250      Cu  0.41420001  0.47774205  0.08178626     0.43900
N251        N  0.40782054  0.51228195  0.06379619    -0.34400
N252        N  0.40678371  0.49135233  0.06569329    -0.28600
C253        C  0.40116155  0.48146109  0.05567155    -0.04700
C254        C  0.39878234  0.49700738  0.04706901     0.07500
C255        C  0.40296422  0.51632946  0.05258977     0.01300
H256        H  0.39892706  0.46429751  0.05475814     0.09000
H257        H  0.40298890  0.53217531  0.04867574     0.08000
N258        N  0.42417277  0.46851869  0.09839029    -0.35800
N259        N  0.43158941  0.48185553  0.10644507    -0.28000
C260        C  0.43735031  0.47043233  0.11591785    -0.03200
C261        C  0.43325256  0.44885180  0.11381031     0.05400
C262        C  0.42513627  0.44830330  0.10253101     0.03500
H263        H  0.44444724  0.47733191  0.12369831     0.08600
H264        H  0.42117405  0.43420028  0.09743573     0.07400
N265        N  0.52506399  0.22306363  0.15729540    -0.27000
N266        N  0.52360421  0.21053804  0.16659308    -0.34800
C267        C  0.53453799  0.19230344  0.16466802     0.01400
C268        C  0.54330370  0.19311662  0.15358361     0.07400
C269        C  0.53726972  0.21304870  0.14919608    -0.05700
H270        H  0.53619797  0.17945328  0.17098647     0.08100
H271        H  0.54125852  0.21965089  0.14071375     0.09300
Cu272      Cu  0.50636142  0.21797092  0.18147045     0.44200
Cu273      Cu  0.50955931  0.25281641  0.15651317     0.42000
Cu274      Cu  0.47567788  0.26616629  0.18217756     0.43900
N275        N  0.48497500  0.22506077  0.19469633    -0.34400
N276        N  0.47297766  0.24253548  0.19484732    -0.28600
C277        C  0.45932915  0.24139835  0.20394256    -0.04700
C278        C  0.46317386  0.22233024  0.20990937     0.07500
C279        C  0.47950197  0.21241847  0.20371095     0.01300
H280        H  0.44699410  0.25314542  0.20571317     0.09000
H281        H  0.48659233  0.19686572  0.20545685     0.08000
N282        N  0.48135028  0.28657314  0.16819680    -0.35800
N283        N  0.49275712  0.28160832  0.15882374    -0.28000
C284        C  0.49200084  0.29823614  0.15131462    -0.03200
C285        C  0.48006396  0.31476493  0.15629209     0.05400
C286        C  0.47343909  0.30655729  0.16696344     0.03500
H287        H  0.49913622  0.29786464  0.14271001     0.08600
H288        H  0.46345768  0.31446216  0.17339777     0.07400
N289        N  0.02819846  0.39661437  0.65596902    -0.27000
N290        N  0.02350899  0.40627325  0.66594134    -0.34800
C291        C  0.00853716  0.42134603  0.66401177     0.01400
C292        C  0.00352375  0.42118153  0.65224413     0.07400
C293        C  0.01645328  0.40545943  0.64736126    -0.05700
H294        H  0.00255221  0.43236179  0.67058605     0.08100
H295        H  0.01756616  0.40109706  0.63821846     0.09300
Cu296      Cu  0.03957528  0.40038736  0.68136895     0.44200
Cu297      Cu  0.05115234  0.37267854  0.65481290     0.42000
Cu298      Cu  0.08517595  0.36435150  0.68052230     0.43900
N299        N  0.05988475  0.39545152  0.69533700    -0.34400
N300        N  0.07685520  0.38275069  0.69507702    -0.28600
C301        C  0.08697137  0.38407406  0.70545320    -0.04700
C302        C  0.07586909  0.39845281  0.71249884     0.07500
C303        C  0.05871115  0.40513743  0.70581478     0.01300
H304        H  0.10121100  0.37511714  0.70770090     0.09000
H305        H  0.04649722  0.41663372  0.70829125     0.08000
N306        N  0.08739417  0.34647417  0.66513644    -0.35800
N307        N  0.07463608  0.34925815  0.65603301    -0.28000
C308        C  0.07889291  0.33407961  0.64798605    -0.03200
C309        C  0.09531378  0.32126481  0.65209216     0.05400
C310        C  0.10028057  0.32951497  0.66301947     0.03500
H311        H  0.07036846  0.33226234  0.63981586     0.08600
H312        H  0.11170476  0.32307155  0.66919894     0.07400
N313        N  0.12013204  0.08972337  0.60113764    -0.27000
N314        N  0.12030597  0.08205588  0.59037507    -0.34800
C315        C  0.10868122  0.06396929  0.58996369     0.01400
C316        C  0.10059639  0.05980084  0.60101763     0.07400
C317        C  0.10854217  0.07641261  0.60793973    -0.05700
H318        H  0.10567036  0.05497524  0.58202616     0.08100
H319        H  0.10606933  0.07890828  0.61717971     0.09300
Cu320      Cu  0.13516187  0.09690741  0.57649232     0.44200
Cu321      Cu  0.13336215  0.11950186  0.60532723     0.42000
Cu322      Cu  0.15719344  0.14958520  0.58089205     0.43900
N323        N  0.15000222  0.11416874  0.56345397    -0.34400
N324        N  0.15836589  0.13346942  0.56495284    -0.28600
C325        C  0.16535967  0.14075317  0.55454773    -0.04700
C326        C  0.16129676  0.12516919  0.54611919     0.07500
C327        C  0.15132665  0.10867039  0.55212912     0.01300
H328        H  0.17207466  0.15657012  0.55314249     0.09000
H329        H  0.14420616  0.09432697  0.54847214     0.08000
N330        N  0.15096057  0.16255225  0.59733225    -0.35800
N331        N  0.14273502  0.15164688  0.60619178    -0.28000
C332        C  0.13881326  0.16535242  0.61506415    -0.03200
C333        C  0.14482063  0.18586732  0.61166705     0.05400
C334        C  0.15233391  0.18344611  0.60034339     0.03500
H335        H  0.13058420  0.16098098  0.62303960     0.08600
H336        H  0.15734035  0.19614068  0.59448553     0.07400
N337        N  0.41380251  0.07933502  0.33120877    -0.27000
N338        N  0.42550874  0.08287735  0.32179050    -0.34800
C339        C  0.44329919  0.07086294  0.32232200     0.01400
C340        C  0.44306484  0.05932394  0.33265599     0.07400
C341        C  0.42391056  0.06483593  0.33801213    -0.05700
H342        H  0.45522271  0.07010932  0.31546965     0.08100
H343        H  0.41771218  0.05864927  0.34618317     0.09300
Cu344      Cu  0.41677790  0.10340900  0.30842691     0.44200
Cu345      Cu  0.38438069  0.09414944  0.33367627     0.42000
Cu346      Cu  0.36570362  0.12989530  0.31000541     0.43900
N347        N  0.40624343  0.12514631  0.29604559    -0.34400
N348        N  0.38759378  0.13510899  0.29655760    -0.28600
C349        C  0.38608946  0.14871927  0.28743074    -0.04700
C350        C  0.40463642  0.14703028  0.28079457     0.07500
C351        C  0.41705785  0.13202965  0.28661753     0.01300
H352        H  0.37279888  0.15952336  0.28599339     0.09000
H353        H  0.43293060  0.12662645  0.28424056     0.08000
N354        N  0.34785910  0.12190526  0.32477839    -0.35800
N355        N  0.35483533  0.10942120  0.33333600    -0.28000
C356        C  0.33945534  0.10766506  0.34148669    -0.03200
C357        C  0.32191863  0.11966196  0.33799872     0.05400
C358        C  0.32777532  0.12827674  0.32728041     0.03500
H359        H  0.34093173  0.09822349  0.34939604     0.08600
H360        H  0.31803115  0.13800726  0.32153878     0.07400
N361        N  0.09673141  0.10213926  0.40448315    -0.27000
N362        N  0.09156457  0.09829007  0.41548805    -0.34800
C363        C  0.07210242  0.08920614  0.41582096     0.01400
C364        C  0.06464072  0.08706279  0.40447642     0.07400
C365        C  0.08066773  0.09558303  0.39751319    -0.05700
H366        H  0.06395760  0.08448094  0.42376544     0.08100
H367        H  0.08058711  0.09728899  0.38809853     0.09300
Cu368      Cu  0.11082326  0.10617820  0.42959041     0.44200
Cu369      Cu  0.12576811  0.11534162  0.39955779     0.42000
Cu370      Cu  0.16372464  0.12630219  0.42288090     0.43900
N371        N  0.13173341  0.11796355  0.44209561    -0.34400
N372        N  0.15095514  0.12560435  0.43969747    -0.28600
C373        C  0.16023788  0.13203614  0.44972963    -0.04700
C374        C  0.14609382  0.12845564  0.45887670     0.07500
C375        C  0.12830025  0.11926066  0.45367845     0.01300
H376        H  0.17620249  0.13861995  0.45033585     0.09000
H377        H  0.11414781  0.11323081  0.45799705     0.08000
N378        N  0.17173454  0.12565452  0.40520295    -0.35800
N379        N  0.15765796  0.12268036  0.39674340    -0.28000
C380        C  0.16782787  0.12291346  0.38638678    -0.03200
C381        C  0.18954947  0.12556515  0.38835318     0.05400
C382        C  0.19130385  0.12754168  0.40042072     0.03500
H383        H  0.15978479  0.12120270  0.37807986     0.08600
H384        H  0.20585369  0.12959989  0.40541280     0.07400
C385        C  0.20742292  0.12587834  0.37973234    -0.11700
C386        C  0.20733224  0.11360113  0.36926317     0.03800
C387        C  0.22513415  0.11396411  0.36182670    -0.12200
C388        C  0.24351853  0.12563506  0.36475702     0.18700
C389        C  0.24372922  0.13779304  0.37513417    -0.09200
C390        C  0.22575205  0.13804074  0.38241334    -0.02200
H391        H  0.22502495  0.10429071  0.35393400     0.05200
C392        C  0.26284960  0.12376375  0.35734018     0.20700
H393        H  0.22634200  0.14750925  0.39036227     0.10400
C394        C  0.27032307  0.14180312  0.35123051    -0.15600
C395        C  0.28938320  0.14090486  0.34479565     0.03400
C396        C  0.30118403  0.12149505  0.34425922    -0.10900
C397        C  0.29341414  0.10339259  0.35027414    -0.00900
C398        C  0.27447261  0.10438798  0.35675547    -0.06100
H399        H  0.26157159  0.15682853  0.35174825     0.06400
H400        H  0.30218183  0.08836087  0.35000156     0.09800
Br401      Br  0.26878635  0.15299534  0.38018780    -0.05800
Br402      Br  0.18501106  0.09386306  0.36506713    -0.02700
Br403      Br  0.29924979  0.16731453  0.33800126     0.00100
Br404      Br  0.26569977  0.07914492  0.36514604    -0.04300
C405        C  0.16318826  0.12731433  0.53325081    -0.11700
C406        C  0.16742227  0.10946206  0.52593029     0.03800
C407        C  0.16626662  0.11173438  0.51378758    -0.12200
C408        C  0.16160893  0.13169390  0.50867620     0.18700
C409        C  0.15864285  0.14978276  0.51593485    -0.09200
C410        C  0.15938891  0.14747937  0.52809506    -0.02200
H411        H  0.16878514  0.09775260  0.50828617     0.05200
C412        C  0.15850718  0.13284795  0.49584839     0.20700
H413        H  0.15632419  0.16143565  0.53352115     0.10400
C414        C  0.13825456  0.13825338  0.49147676    -0.15600
C415        C  0.13403412  0.13775597  0.47947166     0.03400
C416        C  0.15020761  0.13129265  0.47156186    -0.10900
C417        C  0.17069892  0.12663258  0.47594022    -0.00900
C418        C  0.17491598  0.12730876  0.48795201    -0.06100
H419        H  0.12554480  0.14264919  0.49747166     0.06400
H420        H  0.18338406  0.12182873  0.47003287     0.09800
Br421      Br  0.15367528  0.17798177  0.50967585    -0.05800
Br422      Br  0.17598489  0.08183062  0.53181339    -0.02700
Br423      Br  0.10623282  0.14723568  0.47454022     0.00100
Br424      Br  0.20334590  0.12061648  0.49313097    -0.04300
C425        C  0.10360924  0.30148990  0.64649854    -0.11700
C426        C  0.12570143  0.29751899  0.64521339     0.03800
C427        C  0.13270060  0.27874482  0.63958108    -0.12200
C428        C  0.11798562  0.26381747  0.63512223     0.18700
C429        C  0.09592665  0.26763573  0.63656536    -0.09200
C430        C  0.08893583  0.28642663  0.64211649    -0.02200
H431        H  0.14969398  0.27596797  0.63846524     0.05200
C432        C  0.12590760  0.24443277  0.62894542     0.20700
H433        H  0.07191578  0.28917891  0.64313159     0.10400
C434        C  0.13620982  0.22817146  0.63531030    -0.15600
C435        C  0.14314686  0.20925628  0.62979599     0.03400
C436        C  0.13962771  0.20633410  0.61770653    -0.10900
C437        C  0.13016647  0.22307940  0.61128026    -0.00900
C438        C  0.12342652  0.24203348  0.61677654    -0.06100
H439        H  0.13875779  0.23016829  0.64461994     0.06400
H440        H  0.12757899  0.22126469  0.60196591     0.09800
Br441      Br  0.07475389  0.24742855  0.63137426    -0.05800
Br442      Br  0.14691075  0.31789116  0.65012802    -0.02700
Br443      Br  0.15847900  0.18863311  0.63904029     0.00100
Br444      Br  0.11127737  0.26436129  0.60727919    -0.04300
C445        C  0.41105028  0.15957213  0.27032592    -0.11700
C446        C  0.39661026  0.16469308  0.26122665     0.03800
C447        C  0.40375887  0.17622593  0.25145212    -0.12200
C448        C  0.42520742  0.18245750  0.25045941     0.18700
C449        C  0.43966252  0.17718423  0.25940944    -0.09200
C450        C  0.43254180  0.16594460  0.26924155    -0.02200
H451        H  0.39271052  0.17974776  0.24441353     0.05200
C452        C  0.43278743  0.19293732  0.23965551     0.20700
H453        H  0.44394084  0.16208687  0.27605178     0.10400
C454        C  0.43471761  0.21538867  0.23922950    -0.15600
C455        C  0.44406603  0.22552977  0.22954668     0.03400
C456        C  0.45153988  0.21301150  0.22002941    -0.10900
C457        C  0.44892052  0.19054100  0.22042823    -0.00900
C458        C  0.43974763  0.18051710  0.23012184    -0.06100
H459        H  0.42963005  0.22498022  0.24664652     0.06400
H460        H  0.45432225  0.18059437  0.21322535     0.09800
Br461      Br  0.46946682  0.18428523  0.25828832    -0.05800
Br462      Br  0.36764830  0.15453376  0.26093983    -0.02700
Br463      Br  0.44792649  0.25611254  0.23053123     0.00100
Br464      Br  0.43802658  0.14968961  0.23025183    -0.04300
C465        C  0.43897152  0.43032377  0.12139321    -0.11700
C466        C  0.42665850  0.41126544  0.12174480     0.03800
C467        C  0.43371600  0.39365830  0.12831641    -0.12200
C468        C  0.45257661  0.39475509  0.13492313     0.18700
C469        C  0.46426903  0.41410469  0.13509149    -0.09200
C470        C  0.45750519  0.43158979  0.12832877    -0.02200
H471        H  0.42442543  0.37895275  0.12825685     0.05200
C472        C  0.46018941  0.37521140  0.14109083     0.20700
H473        H  0.46704805  0.44611660  0.12835627     0.10400
C474        C  0.47981456  0.36602139  0.13785939    -0.15600
C475        C  0.48710842  0.34696859  0.14301727     0.03400
C476        C  0.47403909  0.33595487  0.15115873    -0.10900
C477        C  0.45460645  0.34558924  0.15458899    -0.00900
C478        C  0.44784770  0.36515791  0.14979888    -0.06100
H479        H  0.48966521  0.37388167  0.13134326     0.06400
H480        H  0.44445018  0.33787841  0.16099938     0.09800
Br481      Br  0.48923057  0.41764024  0.14466081    -0.05800
Br482      Br  0.39935379  0.40855067  0.11421648    -0.02700
Br483      Br  0.51585069  0.33846163  0.13930317     0.00100
Br484      Br  0.42218920  0.37805209  0.15583170    -0.04300
C485        C  0.09360392  0.45192658  0.78089669    -0.11700
C486        C  0.08467066  0.46329674  0.77141454     0.03800
C487        C  0.08345159  0.45357910  0.76041784    -0.12200
C488        C  0.09104214  0.43260052  0.75866057     0.18700
C489        C  0.10086205  0.42157546  0.76796001    -0.09200
C490        C  0.10219076  0.43132236  0.77899152    -0.02200
H491        H  0.07623780  0.46229120  0.75322572     0.05200
C492        C  0.08759298  0.42228795  0.74718404     0.20700
H493        H  0.10919394  0.42247912  0.78619501     0.10400
C494        C  0.10467764  0.42024622  0.73931973    -0.15600
C495        C  0.10142442  0.41195200  0.72806345     0.03400
C496        C  0.08070891  0.40558292  0.72455796    -0.10900
C497        C  0.06373399  0.40738104  0.73255727    -0.00900
C498        C  0.06705267  0.41554365  0.74379537    -0.06100
H499        H  0.12047618  0.42566155  0.74185155     0.06400
H500        H  0.04776138  0.40249592  0.73003462     0.09800
Br501      Br  0.11146079  0.39279814  0.76610101    -0.05800
Br502      Br  0.07465893  0.49240896  0.77283853    -0.02700
Br503      Br  0.12546815  0.41168321  0.71762953     0.00100
Br504      Br  0.04310748  0.41715263  0.75428128    -0.04300
C505        C  0.37233866  0.48692601  0.97371288    -0.11700
C506        C  0.36104180  0.47348295  0.98151427     0.03800
C507        C  0.36405415  0.47571231  0.99358639    -0.12200
C508        C  0.37830929  0.49104090  0.99804059     0.18700
C509        C  0.38973802  0.50429134  0.99029843    -0.09200
C510        C  0.38664412  0.50222365  0.97825737    -0.02200
H511        H  0.35563368  0.46510869  0.99952435     0.05200
C512        C  0.38233155  0.49193201  0.01072587     0.20700
H513        H  0.39554229  0.51260055  0.97241630     0.10400
C514        C  0.39638910  0.47693489  0.01567491    -0.15600
C515        C  0.40187273  0.47807323  0.02751247     0.03400
C516        C  0.39284049  0.49427639  0.03464735    -0.10900
C517        C  0.37856352  0.50913764  0.02964845    -0.00900
C518        C  0.37329993  0.50808928  0.01778875    -0.06100
H519        H  0.40368716  0.46472697  0.01019361     0.06400
H520        H  0.37155505  0.52172829  0.03498048     0.09800
Br521      Br  0.41038689  0.52477941  0.99578258    -0.05800
Br522      Br  0.34298081  0.45047310  0.97627252    -0.02700
Br523      Br  0.42343673  0.45852875  0.03297240     0.00100
Br524      Br  0.35402876  0.52921002  0.01156782    -0.04300
C525        C  0.17516106  0.49967669  0.86212667    -0.11700
C526        C  0.18165065  0.51638382  0.86976072     0.03800
C527        C  0.20065866  0.51428267  0.87617073    -0.12200
C528        C  0.21341558  0.49579797  0.87513670     0.18700
C529        C  0.20688939  0.47909959  0.86766011    -0.09200
C530        C  0.18799618  0.48113691  0.86125219    -0.02200
H531        H  0.20570682  0.52726972  0.88186325     0.05200
C532        C  0.23377805  0.49430796  0.88165507     0.20700
H533        H  0.18333249  0.46804351  0.85554214     0.10400
C534        C  0.23528970  0.48043174  0.89127205    -0.15600
C535        C  0.25469087  0.47767304  0.89721329     0.03400
C536        C  0.27302836  0.48925042  0.89361767    -0.10900
C537        C  0.27131226  0.50319318  0.88397895    -0.00900
C538        C  0.25198621  0.50571454  0.87800261    -0.06100
H539        H  0.22139551  0.47129970  0.89398274     0.06400
H540        H  0.28507620  0.51226156  0.88104188     0.09800
Br541      Br  0.22367291  0.45349529  0.86560321    -0.05800
Br542      Br  0.16640472  0.54306636  0.87126041    -0.02700
Br543      Br  0.25522930  0.45645557  0.90939019     0.00100
Br544      Br  0.25146121  0.52421529  0.86458825    -0.04300
C545        C  0.62970777  0.09028451  0.14038841    -0.11700
C546        C  0.61131781  0.09136642  0.13320106     0.03800
C547        C  0.59902475  0.11022828  0.13293497    -0.12200
C548        C  0.60399911  0.12790456  0.14009053     0.18700
C549        C  0.62238639  0.12687619  0.14719786    -0.09200
C550        C  0.63527486  0.10847662  0.14703940    -0.02200
H551        H  0.58452371  0.11053208  0.12775045     0.05200
C552        C  0.58769785  0.14505478  0.14174469     0.20700
H553        H  0.64909700  0.10792931  0.15274018     0.10400
C554        C  0.56761593  0.13903132  0.14610610    -0.15600
C555        C  0.55240615  0.15446015  0.14921983     0.03400
C556        C  0.55728604  0.17654583  0.14823612    -0.10900
C557        C  0.57669635  0.18261299  0.14299036    -0.00900
C558        C  0.59182079  0.16704163  0.13964923    -0.06100
H559        H  0.56392703  0.12216555  0.14739443     0.06400
H560        H  0.58045849  0.19949887  0.14189146     0.09800
Br561      Br  0.62899666  0.14856461  0.15861241    -0.05800
Br562      Br  0.59982082  0.06698397  0.12502706    -0.02700
Br563      Br  0.52500041  0.14425024  0.15437509     0.00100
Br564      Br  0.61767444  0.17652894  0.13222846    -0.04300
C565        C  0.53327653  0.68412535  0.07978002    -0.11700
C566        C  0.53392753  0.66321878  0.07493142     0.03800
C567        C  0.52131213  0.64697346  0.07972457    -0.12200
C568        C  0.50823985  0.65105480  0.08941766     0.18700
C569        C  0.50891688  0.67132136  0.09487798    -0.09200
C570        C  0.52137426  0.68773897  0.09002584    -0.02200
H571        H  0.52128078  0.63117971  0.07569108     0.05200
C572        C  0.49310418  0.63422608  0.09307737     0.20700
H573        H  0.52104163  0.70357587  0.09399026     0.10400
C574        C  0.50099767  0.61544049  0.09825828    -0.15600
C575        C  0.48779596  0.59754299  0.09989487     0.03400
C576        C  0.46606992  0.59850726  0.09646469    -0.10900
C577        C  0.45808179  0.61775165  0.09171177    -0.00900
C578        C  0.47143346  0.63541132  0.08986616    -0.06100
H579        H  0.51783031  0.61430033  0.10042789     0.06400
H580        H  0.44157782  0.61870327  0.08886925     0.09800
Br581      Br  0.49276349  0.67724287  0.10877534    -0.05800
Br582      Br  0.55223460  0.65549020  0.06209088    -0.02700
Br583      Br  0.50148804  0.57172131  0.10525530     0.00100
Br584      Br  0.45994836  0.65988408  0.08176418    -0.04300
C585        C  0.65721841  0.92172720  0.11764800    -0.11700
C586        C  0.64440293  0.90434715  0.12140932     0.03800
C587        C  0.63884124  0.88811758  0.11352707    -0.12200
C588        C  0.64589696  0.88864201  0.10189811     0.18700
C589        C  0.65879294  0.90584734  0.09812860    -0.09200
C590        C  0.66423696  0.92226898  0.10597627    -0.02200
H591        H  0.62852754  0.87516977  0.11642691     0.05200
C592        C  0.63851932  0.87159938  0.09381750     0.20700
H593        H  0.67409971  0.93547746  0.10296582     0.10400
C594        C  0.62442320  0.87695839  0.08472033    -0.15600
C595        C  0.61511973  0.86092655  0.07778790     0.03400
C596        C  0.61977681  0.83912193  0.08002400    -0.10900
C597        C  0.63414589  0.83381929  0.08897361    -0.00900
C598        C  0.64362070  0.84982509  0.09579539    -0.06100
H599        H  0.62007642  0.89362963  0.08327662     0.06400
H600        H  0.63797503  0.81710478  0.09068698     0.09800
Br601      Br  0.66974278  0.90729276  0.08247457    -0.05800
Br602      Br  0.63228486  0.90256338  0.13680990    -0.02700
Br603      Br  0.59474383  0.86957626  0.06615985     0.00100
Br604      Br  0.66350552  0.84113506  0.10766223    -0.04300
C605        C  0.08573831  0.04188890  0.60400632    -0.11700
C606        C  0.06930027  0.04365372  0.61249163     0.03800
C607        C  0.05453970  0.02689491  0.61387329    -0.12200
C608        C  0.05509115  0.00863860  0.60664607     0.18700
C609        C  0.07125381  0.00697750  0.59810295    -0.09200
C610        C  0.08669339  0.02308725  0.59714582    -0.02200
H611        H  0.04172470  0.02867929  0.62018979     0.05200
C612        C  0.03688838  0.99337441  0.60688680     0.20700
H613        H  0.09892747  0.02130990  0.59050899     0.10400
C614        C  0.01633357  0.00134472  0.60456635    -0.15600
C615        C  0.99909435  0.98740827  0.60297814     0.03400
C616        C  0.00240052  0.96495199  0.60335313    -0.10900
C617        C  0.02249158  0.95704178  0.60678017    -0.00900
C618        C  0.03963731  0.97109396  0.60870337    -0.06100
H619        H  0.01379206  0.01851079  0.60362015     0.06400
H620        H  0.02515499  0.93986035  0.60746696     0.09800
Br621      Br  0.07140863  0.98476721  0.58638363    -0.05800
Br622      Br  0.06380623  0.06925775  0.62140396    -0.02700
Br623      Br  0.97136477  0.00007034  0.60067153     0.00100
Br624      Br  0.06640414  0.95913064  0.61373912    -0.04300
C625        C  0.92747071  0.52518188  0.62725145    -0.11700
C626        C  0.94913346  0.52769964  0.63042931     0.03800
C627        C  0.96168542  0.50950620  0.63264284    -0.12200
C628        C  0.95319279  0.48871579  0.63147071     0.18700
C629        C  0.93202930  0.48625203  0.62746948    -0.09200
C630        C  0.91930120  0.50440211  0.62555118    -0.02200
H631        H  0.97785473  0.51161825  0.63584325     0.05200
C632        C  0.96563474  0.47011350  0.63586502     0.20700
H633        H  0.90274366  0.50227923  0.62300676     0.10400
C634        C  0.95727944  0.45815738  0.64521770    -0.15600
C635        C  0.96897623  0.44143537  0.65025942     0.03400
C636        C  0.98969006  0.43674412  0.64614364    -0.10900
C637        C  0.99785039  0.44820891  0.63656339    -0.00900
C638        C  0.98603026  0.46485609  0.63143434    -0.06100
H639        H  0.94162286  0.46202528  0.64871208     0.06400
H640        H  0.01373892  0.44466169  0.63329328     0.09800
Br641      Br  0.91971115  0.45844070  0.62466069    -0.05800
Br642      Br  0.96191584  0.55533075  0.63313680    -0.02700
Br643      Br  0.95551612  0.42490703  0.66237154     0.00100
Br644      Br  0.99836564  0.47982285  0.61841297    -0.04300
C645        C  0.92507257  0.80396049  0.59726706    -0.11700
C646        C  0.92284735  0.78704194  0.58909008     0.03800
C647        C  0.91823044  0.76626267  0.59298092    -0.12200
C648        C  0.91595956  0.76196179  0.60491921     0.18700
C649        C  0.91909444  0.77853394  0.61311930    -0.09200
C650        C  0.92363902  0.79936968  0.60926136    -0.02200
H651        H  0.91625378  0.75340270  0.58666579     0.05200
C652        C  0.90977083  0.74016938  0.60860280     0.20700
H653        H  0.92548553  0.81212680  0.61564491     0.10400
C654        C  0.92551389  0.72429789  0.60980077    -0.15600
C655        C  0.92010837  0.70345756  0.61333812     0.03400
C656        C  0.89846749  0.69823719  0.61555200    -0.10900
C657        C  0.88277516  0.71427036  0.61426638    -0.00900
C658        C  0.88826974  0.73508309  0.61082413    -0.06100
H659        H  0.94212374  0.72828062  0.60818873     0.06400
H660        H  0.86611612  0.71060267  0.61593511     0.09800
Br661      Br  0.91701725  0.77340755  0.62961601    -0.05800
Br662      Br  0.92715441  0.79085836  0.57259605    -0.02700
Br663      Br  0.94328254  0.68376040  0.61595689     0.00100
Br664      Br  0.86594982  0.75610952  0.60927220    -0.04300
C665        C  0.92953710  0.62473158  0.82784885    -0.11700
C666        C  0.92633326  0.61471685  0.83883258     0.03800
C667        C  0.94230505  0.60139430  0.84350047    -0.12200
C668        C  0.96143919  0.59775217  0.83742141     0.18700
C669        C  0.96489333  0.60820157  0.82668164    -0.09200
C670        C  0.94915940  0.62168551  0.82207996    -0.02200
H671        H  0.93939620  0.59303768  0.85165757     0.05200
C672        C  0.97641796  0.58090815  0.84144453     0.20700
H673        H  0.95194391  0.62910578  0.81364683     0.10400
C674        C  0.97093442  0.55930902  0.83962221    -0.15600
C675        C  0.98616997  0.54299264  0.84092233     0.03400
C676        C  0.00742174  0.54827691  0.84396548    -0.10900
C677        C  0.01226194  0.56971297  0.84689274    -0.00900
C678        C  0.99691790  0.58598167  0.84567809    -0.06100
H679        H  0.95499515  0.55522588  0.83664727     0.06400
H680        H  0.02834699  0.57409224  0.84945426     0.09800
Br681      Br  0.98989388  0.60281017  0.81735466    -0.05800
Br682      Br  0.89987495  0.61618169  0.84731569    -0.02700
Br683      Br  0.97691101  0.51388350  0.83849113     0.00100
Br684      Br  0.00488430  0.61502486  0.84929795    -0.04300
C685        C  0.83838323  0.62849049  0.74703811    -0.11700
C686        C  0.82137176  0.61588304  0.74274016     0.03800
C687        C  0.81985984  0.61174534  0.73074881    -0.12200
C688        C  0.83525480  0.61980161  0.72300403     0.18700
C689        C  0.85230001  0.63226492  0.72730968    -0.09200
C690        C  0.85380056  0.63642061  0.73926113    -0.02200
H691        H  0.80687797  0.60191165  0.72747094     0.05200
C692        C  0.83352607  0.61489792  0.71046100     0.20700
H693        H  0.86688255  0.64619127  0.74247489     0.10400
C694        C  0.81827346  0.62575615  0.70370249    -0.15600
C695        C  0.81758186  0.62290595  0.69157806     0.03400
C696        C  0.83226876  0.60887372  0.68611339    -0.10900
C697        C  0.84678325  0.59721455  0.69302163    -0.00900
C698        C  0.84752137  0.60016435  0.70510502    -0.06100
H699        H  0.80724802  0.63687358  0.70784158     0.06400
H700        H  0.85823147  0.58643053  0.68898158     0.09800
Br701      Br  0.87368388  0.64426143  0.71718830    -0.05800
Br702      Br  0.80082715  0.60258005  0.75289149    -0.02700
Br703      Br  0.79607844  0.63823828  0.68297659     0.00100
Br704      Br  0.86829492  0.58421480  0.71391805    -0.04300
C705        C  0.44234911  0.53033487  0.89172231    -0.11700
C706        C  0.44757748  0.53080677  0.87968400     0.03800
C707        C  0.46219785  0.54610007  0.87547244    -0.12200
C708        C  0.47209527  0.56062842  0.88313383     0.18700
C709        C  0.46761615  0.55953198  0.89515650    -0.09200
C710        C  0.45281279  0.54464968  0.89932761    -0.02200
H711        H  0.46593995  0.54659875  0.86622562     0.05200
C712        C  0.48666270  0.57740411  0.87867775     0.20700
H713        H  0.44917296  0.54468278  0.90858180     0.10400
C714        C  0.47829386  0.59784896  0.87623313    -0.15600
C715        C  0.49188660  0.61548166  0.87469490     0.03400
C716        C  0.51418210  0.61273023  0.87557260    -0.10900
C717        C  0.52258767  0.59196166  0.87705479    -0.00900
C718        C  0.50896843  0.57433593  0.87867704    -0.06100
H719        H  0.46113319  0.60031119  0.87617015     0.06400
H720        H  0.53972156  0.58967285  0.87775252     0.09800
Br721      Br  0.48125027  0.57825983  0.90623682    -0.05800
Br722      Br  0.43651832  0.51021177  0.86874025    -0.02700
Br723      Br  0.47935084  0.64312956  0.87172414     0.00100
Br724      Br  0.52135668  0.54674439  0.88192668    -0.04300
C725        C  0.58290031  0.72601970  0.93729075    -0.11700
C726        C  0.60181624  0.72380965  0.94393988     0.03800
C727        C  0.60208814  0.73036395  0.95562904    -0.12200
C728        C  0.58373559  0.73889951  0.96091009     0.18700
C729        C  0.56493717  0.74136969  0.95429282    -0.09200
C730        C  0.56460959  0.73485867  0.94258086    -0.02200
H731        H  0.61648055  0.72811618  0.96076005     0.05200
C732        C  0.58403972  0.74348643  0.97355604     0.20700
H733        H  0.54997270  0.73657616  0.93760296     0.10400
C734        C  0.58444594  0.76483900  0.97750230    -0.15600
C735        C  0.58393057  0.76955119  0.98947825     0.03400
C736        C  0.58304726  0.75260110  0.99769801    -0.10900
C737        C  0.58302500  0.73124037  0.99364705    -0.00900
C738        C  0.58354040  0.72660942  0.98171557    -0.06100
H739        H  0.58475007  0.77787448  0.97122371     0.06400
H740        H  0.58246484  0.71800764  0.99979385     0.09800
Br741      Br  0.53913185  0.75259656  0.96105733    -0.05800
Br742      Br  0.62709624  0.70994274  0.93806636    -0.02700
Br743      Br  0.58265710  0.79935059  0.99385047     0.00100
Br744      Br  0.58268172  0.69698220  0.97695453    -0.04300
C745        C  0.66765329  0.69253630  0.85677443    -0.11700
C746        C  0.67835542  0.67336511  0.85364076     0.03800
C747        C  0.69821524  0.67439456  0.84809372    -0.12200
C748        C  0.70797982  0.69422727  0.84579349     0.18700
C749        C  0.69743999  0.71339259  0.84897763    -0.09200
C750        C  0.67746598  0.71241787  0.85447823    -0.02200
H751        H  0.70627705  0.65958245  0.84569426     0.05200
C752        C  0.72901172  0.69434299  0.83991328     0.20700
H753        H  0.66953290  0.72725700  0.85694880     0.10400
C754        C  0.73064593  0.70273509  0.82858566    -0.15600
C755        C  0.74980716  0.70132646  0.82233031     0.03400
C756        C  0.76767873  0.69089757  0.82735079    -0.10900
C757        C  0.76620730  0.68328409  0.83888287    -0.00900
C758        C  0.74710767  0.68494408  0.84516183    -0.06100
H759        H  0.71684004  0.71017231  0.82453337     0.06400
H760        H  0.77973537  0.67536145  0.84293081     0.09800
Br761      Br  0.70998235  0.74114384  0.84634405    -0.05800
Br762      Br  0.66783413  0.64528292  0.85758844    -0.02700
Br763      Br  0.75062554  0.71488953  0.80725764     0.00100
Br764      Br  0.74652926  0.67410907  0.86087105    -0.04300
C765        C  0.94753974  0.01926341  0.39732640    -0.11700
C766        C  0.96787840  0.01055561  0.39971744     0.03800
C767        C  0.98601116  0.02351552  0.39884813    -0.12200
C768        C  0.98423873  0.04524406  0.39572689     0.18700
C769        C  0.96409812  0.05359673  0.39255387    -0.09200
C770        C  0.94589804  0.04053131  0.39332667    -0.02200
H771        H  0.00148025  0.01687213  0.40114621     0.05200
C772        C  0.00351920  0.05885456  0.39671695     0.20700
H773        H  0.93030863  0.04740511  0.39154201     0.10400
C774        C  0.02092243  0.05483439  0.38928648    -0.15600
C775        C  0.04086889  0.06434271  0.39133839     0.03400
C776        C  0.04354726  0.07834780  0.40097853    -0.10900
C777        C  0.02583382  0.08293259  0.40812339    -0.00900
C778        C  0.00604076  0.07320936  0.40615274    -0.06100
H779        H  0.01924440  0.04335965  0.38220373     0.06400
H780        H  0.02756726  0.09360144  0.41556214     0.09800
Br781      Br  0.96058449  0.08288102  0.38765062    -0.08200
Br782      Br  0.97164827  0.98125024  0.40459935    -0.02700
Br783      Br  0.06411440  0.05531145  0.38151824     0.00100
Br784      Br  0.98370887  0.07840486  0.41734171    -0.04300
C785        C  0.87046204  0.95578535  0.47308844    -0.11700
C786        C  0.85385143  0.95642349  0.48145440     0.03800
C787        C  0.85813174  0.95092588  0.49309329    -0.12200
C788        C  0.87877815  0.94486270  0.49655741     0.18700
C789        C  0.89533589  0.94424366  0.48823022    -0.09200
C790        C  0.89110215  0.94969885  0.47663683    -0.02200
H791        H  0.84535273  0.95149336  0.49948840     0.05200
C792        C  0.88286756  0.93870097  0.50880409     0.20700
H793        H  0.90405417  0.94910309  0.47034858     0.10400
C794        C  0.88751916  0.91715563  0.51130325    -0.15600
C795        C  0.89368391  0.91084976  0.52252020     0.03400
C796        C  0.89497275  0.92632444  0.53156789    -0.10900
C797        C  0.88971976  0.94784683  0.52908575    -0.00900
C798        C  0.88361566  0.95409151  0.51782241    -0.06100
H799        H  0.88711792  0.90530241  0.50434825     0.06400
H800        H  0.89061055  0.95992188  0.53590817     0.09800
Br801      Br  0.92414303  0.93660501  0.49233147    -0.05800
Br802      Br  0.82548657  0.96607241  0.47778039    -0.02700
Br803      Br  0.90227892  0.88137880  0.52434993     0.00100
Br804      Br  0.87747718  0.98390992  0.51503774    -0.04300
C805        C  0.53751110  0.96171007  0.33459569    -0.11700
C806        C  0.53891542  0.97705570  0.34370870     0.03800
C807        C  0.52190067  0.99127796  0.34570591    -0.12200
C808        C  0.50347860  0.99072404  0.33871801     0.18700
C809        C  0.50184218  0.97504035  0.32985506    -0.09200
C810        C  0.51867190  0.96065190  0.32794870    -0.02200
H811        H  0.52353457  0.00366542  0.35232247     0.05200
C812        C  0.48815080  0.00886086  0.33931500     0.20700
H813        H  0.51739813  0.94913749  0.32086093     0.10400
C814        C  0.49534646  0.02926437  0.33592891    -0.15600
C815        C  0.48105217  0.04631540  0.33451485     0.03400
C816        C  0.45896259  0.04300220  0.33629702    -0.10900
C817        C  0.45199255  0.02308746  0.34069994    -0.00900
C818        C  0.46646092  0.00607436  0.34229287    -0.06100
H819        H  0.51212915  0.03176357  0.33398971     0.06400
H820        H  0.43516303  0.02043272  0.34241328     0.09800
Br821      Br  0.47814862  0.97409800  0.31918941    -0.05800
Br822      Br  0.56441638  0.98159832  0.35271722    -0.02700
Br823      Br  0.49284809  0.07383663  0.33044866     0.00100
Br824      Br  0.45597316  0.97931565  0.34836289    -0.04300
C825        C  0.67040356  0.97580257  0.20710191    -0.11700
C826        C  0.65368647  0.98424103  0.21408341     0.03800
C827        C  0.65045623  0.97631034  0.22538261    -0.12200
C828        C  0.66364963  0.96017167  0.22995277     0.18700
C829        C  0.68047375  0.95192589  0.22311376    -0.09200
C830        C  0.68367476  0.95969244  0.21177291    -0.02200
H831        H  0.63735807  0.98254802  0.23059710     0.05200
C832        C  0.65907225  0.95174374  0.24174438     0.20700
H833        H  0.69648718  0.95296566  0.20653047     0.10400
C834        C  0.64137094  0.93825126  0.24334956    -0.15600
C835        C  0.63601519  0.93062839  0.25447327     0.03400
C836        C  0.64856483  0.93651537  0.26422411    -0.10900
C837        C  0.66649400  0.94975997  0.26254006    -0.00900
C838        C  0.67164181  0.95758031  0.25142709    -0.06100
H839        H  0.63166453  0.93367796  0.23590588     0.06400
H840        H  0.67610738  0.95465965  0.26995377     0.09800
Br841      Br  0.69894593  0.92956917  0.22877103    -0.05800
Br842      Br  0.63345882  0.00512890  0.20854118    -0.02700
Br843      Br  0.61201277  0.91150627  0.25567738     0.00100
Br844      Br  0.69522324  0.97710982  0.24992744    -0.04300
C845        C  0.69634354  0.91069615  0.35506073    -0.11700
C846        C  0.71648022  0.90055098  0.35412433     0.03800
C847        C  0.73324172  0.90686806  0.36146687    -0.12200
C848        C  0.73010534  0.92275015  0.37002523     0.18700
C849        C  0.70959027  0.93159132  0.37160393    -0.09200
C850        C  0.69295347  0.92566152  0.36411060    -0.02200
H851        H  0.74885286  0.89952750  0.36042268     0.05200
C852        C  0.74858477  0.93059715  0.37685584     0.20700
H853        H  0.67752458  0.93335998  0.36514518     0.10400
C854        C  0.75589938  0.95166786  0.37504940    -0.15600
C855        C  0.77344279  0.95967622  0.38125540     0.03400
C856        C  0.78437263  0.94627476  0.38920479    -0.10900
C857        C  0.77675562  0.92530793  0.39116137    -0.00900
C858        C  0.75895522  0.91746175  0.38509781    -0.06100
H859        H  0.74768742  0.96203761  0.36889906     0.06400
H860        H  0.78468912  0.91497249  0.39743278     0.09800
Br861      Br  0.70357550  0.95164626  0.38395512    -0.05800
Br862      Br  0.72169504  0.87724441  0.34346142    -0.02700
Br863      Br  0.78034059  0.98956027  0.37936878     0.00100
Br864      Br  0.74866399  0.88917394  0.38873322    -0.04300
loop_ 
_geom_bond_atom_site_label_1 
_geom_bond_atom_site_label_2 
_geom_bond_distance 
_geom_bond_site_symmetry_2 
_ccdc_geom_bond_type 
N1            N2   1.321       .  A
N1            C5   1.346       .  A
N1           Cu9   2.070       .  S
N2            C3   1.342       .  A
N2           Cu8   2.067       .  S
C3            C4   1.384       .  A
C3            H6   1.083       .  S
C4            C5   1.386       .  A
C4          C805   1.481       .  S
C5            H7   1.082       .  S
Cu8          N11   2.067       .  S
Cu9          N19   2.071       .  S
Cu10         N12   2.079       .  S
Cu10         N18   2.079       .  S
N11          N12   1.322       .  A
N11          C15   1.343       .  A
N12          C13   1.347       .  A
C13          C14   1.386       .  A
C13          H16   1.082       .  S
C14          C15   1.382       .  A
C14         C836   1.478       .  S
C15          H17   1.081       .  S
N18          N19   1.323       .  A
N18          C22   1.344       .  A
N19          C20   1.344       .  A
C20          C21   1.384       .  A
C20          H23   1.083       .  S
C21          C22   1.386       .  A
C21         C845   1.481       .  S
C22          H24   1.081       .  S
N25          N26   1.322       .  A
N25          C29   1.351   1_565  A
N25         Cu33   2.091       .  S
N26          C27   1.337   1_565  A
N26         Cu32   2.048       .  S
C27          C28   1.375       .  A
C27          H30   1.083       .  S
C28          C29   1.388       .  A
C28         C765   1.471       .  S
C29          H31   1.083       .  S
Cu32         N35   2.048       .  S
Cu33         N43   2.093       .  S
Cu34         N36   2.070       .  S
Cu34         N42   2.072       .  S
N35          N36   1.318       .  A
N35          C39   1.340       .  A
N36          C37   1.346       .  A
C37          C38   1.388       .  A
C37          H40   1.081       .  S
C38          C39   1.382       .  A
C38         C785   1.478       .  S
C39          H41   1.082       .  S
N42          N43   1.325       .  A
N42          C46   1.343       .  A
N43          C44   1.347       .  A
C44          C45   1.386       .  A
C44          H47   1.083       .  S
C45          C46   1.380       .  A
C45         C856   1.478       .  S
C46          H48   1.082       .  S
N49          N50   1.323       .  A
N49          C53   1.348       .  A
N49         Cu57   2.077       .  S
N50          C51   1.343       .  A
N50         Cu56   2.078       .  S
C51          C52   1.382       .  A
C51          H54   1.083       .  S
C52          C53   1.383       .  A
C52         C716   1.474       .  S
C53          H55   1.083       .  S
Cu56         N59   2.078       .  S
Cu57         N67   2.077       .  S
Cu58         N60   2.062       .  S
Cu58         N66   2.063       .  S
N59          N60   1.321       .  A
N59          C63   1.346       .  A
N60          C61   1.343       .  A
C61          C62   1.382       .  A
C61          H64   1.081       .  S
C62          C63   1.385       .  A
C62         C725   1.477       .  S
C63          H65   1.082       .  S
N66          N67   1.322       .  A
N66          C70   1.344       .  A
N67          C68   1.344       .  A
C68          C69   1.385       .  A
C68          H71   1.082       .  S
C69          C70   1.381       .  A
C69         C745   1.476       .  S
C70          H72   1.082       .  S
N73          N74   1.322       .  A
N73          C77   1.347       .  A
N73         Cu81   2.078       .  S
N74          C75   1.341       .  A
N74         Cu80   2.066       .  S
C75          C76   1.384       .  A
C75          H78   1.082       .  S
C76          C77   1.388       .  A
C76         C665   1.485       .  S
C77          H79   1.081       .  S
Cu80         N83   2.065       .  S
Cu81         N91   2.078       .  S
Cu82         N84   2.055       .  S
Cu82         N90   2.056       .  S
N83          N84   1.320       .  A
N83          C87   1.343       .  A
N84          C85   1.343       .  A
C85          C86   1.381       .  A
C85          H88   1.081       .  S
C86          C87   1.382       .  A
C86         C685   1.469       .  S
C87          H89   1.082       .  S
N90          N91   1.321       .  A
N90          C94   1.340       .  A
N91          C92   1.345       .  A
C92          C93   1.388       .  A
C92          H95   1.083       .  S
C93          C94   1.382       .  A
C93         C756   1.479       .  S
C94          H96   1.081       .  S
N97          N98   1.322       .  A
N97         C101   1.346       .  A
N97        Cu105   2.074       .  S
N98          C99   1.342       .  A
N98        Cu104   2.067       .  S
C99         C100   1.381       .  A
C99         H102   1.081       .  S
C100        C101   1.384       .  A
C100        C625   1.475       .  S
C101        H103   1.082       .  S
Cu104       N107   2.066       .  S
Cu105       N115   2.074       .  S
Cu106       N108   2.061       .  S
Cu106       N114   2.061       .  S
N107        N108   1.320       .  A
N107        C111   1.343       .  A
N108        C109   1.342       .  A
C109        C110   1.383       .  A
C109        H112   1.081       .  S
C110        C111   1.385       .  A
C110        C696   1.475       .  S
C111        H113   1.082       .  S
N114        N115   1.321       .  A
N114        C118   1.342       .  A
N115        C116   1.345       .  A
C116        C117   1.386       .  A
C116        H119   1.081       .  S
C117        C118   1.383       .  A
C117        C656   1.479       .  S
C118        H120   1.082       .  S
N121        N122   1.322       .  A
N121        C125   1.348       .  A
N121       Cu129   2.079       .  S
N122        C123   1.339       .  A
N122       Cu128   2.063       .  S
C123        C124   1.381       .  A
C123        H126   1.082       .  S
C124        C125   1.387       .  A
C124        C616   1.478   1_655  S
C125        H127   1.083       .  S
Cu128       N131   2.063       .  S
Cu129       N139   2.079       .  S
Cu130       N132   2.063       .  S
Cu130       N138   2.064       .  S
N131        N132   1.318       .  A
N131        C135   1.344       .  A
N132        C133   1.343       .  A
C133        C134   1.385       .  A
C133        H136   1.081       .  S
C134        C135   1.385       .  A
C134        C796   1.479       .  S
C135        H137   1.082       .  S
N138        N139   1.323       .  A
N138        C142   1.341       .  A
N139        C140   1.346       .  A
C140        C141   1.385       .  A
C140        H143   1.082       .  S
C141        C142   1.381       .  A
C141        C645   1.476       .  S
C142        H144   1.082       .  S
N145        N146   1.321       .  A
N145        C149   1.347       .  A
N145       Cu153   2.072       .  S
N146        C147   1.339       .  A
N146       Cu152   2.057       .  S
C147        C148   1.381       .  A
C147        H150   1.082       .  S
C148        C149   1.386       .  A
C148        C565   1.475       .  S
C149        H151   1.082       .  S
Cu152       N155   2.057       .  S
Cu153       N163   2.073       .  S
Cu154       N156   2.071       .  S
Cu154       N162   2.073       .  S
N155        N156   1.320       .  A
N155        C159   1.341       .  A
N156        C157   1.346       .  A
C157        C158   1.387       .  A
C157        H160   1.080       .  S
C158        C159   1.383       .  A
C158        C736   1.479   1_554  S
C159        H161   1.082       .  S
N162        N163   1.324       .  A
N162        C166   1.345       .  A
N163        C164   1.343       .  A
C164        C165   1.381       .  A
C164        H167   1.082       .  S
C165        C166   1.382       .  A
C165        C596   1.472       .  S
C166        H168   1.082       .  S
N169        N170   1.322       .  A
N169        C173   1.347       .  A
N169       Cu177   2.080       .  S
N170        C171   1.342       .  A
N170       Cu176   2.071       .  S
C171        C172   1.385       .  A
C171        H174   1.083       .  S
C172        C173   1.389       .  A
C172        C545   1.487       .  S
C173        H175   1.082       .  S
Cu176       N179   2.070       .  S
Cu177       N187   2.080   1_545  S
Cu178       N180   2.070       .  S
Cu178       N186   2.071       .  S
N179        N180   1.320   1_545  A
N179        C183   1.345       .  A
N180        C181   1.344       .  A
C181        C182   1.384       .  A
C181        H184   1.082       .  S
C182        C183   1.386   1_565  A
C182        C825   1.480       .  S
C183        H185   1.080       .  S
N186        N187   1.323       .  A
N186        C190   1.344       .  A
N187        C188   1.346       .  A
C188        C189   1.385       .  A
C188        H191   1.081       .  S
C189        C190   1.383       .  A
C189        C585   1.479       .  S
C190        H192   1.082       .  S
N193        N194   1.320       .  A
N193        C197   1.347       .  A
N193       Cu201   2.077       .  S
N194        C195   1.342       .  A
N194       Cu200   2.068       .  S
C195        C196   1.387       .  A
C195        H198   1.083       .  S
C196        C197   1.389       .  A
C196        C705   1.486       .  S
C197        H199   1.082       .  S
Cu200       N203   2.069       .  S
Cu201       N211   2.077       .  S
Cu202       N204   2.077       .  S
Cu202       N210   2.077       .  S
N203        N204   1.321       .  A
N203        C207   1.343       .  A
N204        C205   1.346       .  A
C205        C206   1.386       .  A
C205        H208   1.081       .  S
C206        C207   1.384       .  A
C206        C505   1.480       .  S
C207        H209   1.082       .  S
N210        N211   1.322       .  A
N210        C214   1.346       .  A
N211        C212   1.343       .  A
C212        C213   1.386       .  A
C212        H215   1.083       .  S
C213        C214   1.387       .  A
C213        C536   1.486       .  S
C214        H216   1.081       .  S
N217        N218   1.322       .  A
N217        C221   1.347       .  A
N217       Cu225   2.084       .  S
N218        C219   1.342       .  A
N218       Cu224   2.069       .  S
C219        C220   1.385       .  A
C219        H222   1.082       .  S
C220        C221   1.389       .  A
C220        C676   1.483       .  S
C221        H223   1.083       .  S
Cu224       N227   2.069       .  S
Cu225       N235   2.085       .  S
Cu226       N228   2.073       .  S
Cu226       N234   2.074       .  S
N227        N228   1.321       .  A
N227        C231   1.342       .  A
N228        C229   1.347       .  A
C229        C230   1.384       .  A
C229        H232   1.082       .  S
C230        C231   1.382       .  A
C230        C485   1.475       .  S
C231        H233   1.081       .  S
N234        N235   1.323       .  A
N234        C238   1.342       .  A
N235        C236   1.347       .  A
C236        C237   1.388       .  A
C236        H239   1.082       .  S
C237        C238   1.385       .  A
C237        C525   1.486       .  S
C238        H240   1.082       .  S
N241        N242   1.321       .  A
N241        C245   1.346       .  A
N241       Cu249   2.076       .  S
N242        C243   1.340       .  A
N242       Cu248   2.057       .  S
C243        C244   1.382       .  A
C243        H246   1.082       .  S
C244        C245   1.387       .  A
C244        C576   1.480       .  S
C245        H247   1.082       .  S
Cu248       N251   2.057       .  S
Cu249       N259   2.078       .  S
Cu250       N252   2.079       .  S
Cu250       N258   2.080       .  S
N251        N252   1.320       .  A
N251        C255   1.341       .  A
N252        C253   1.347       .  A
C253        C254   1.388       .  A
C253        H256   1.081       .  S
C254        C255   1.381       .  A
C254        C516   1.478       .  S
C255        H257   1.082       .  S
N258        N259   1.323       .  A
N258        C262   1.344       .  A
N259        C260   1.345       .  A
C260        C261   1.386       .  A
C260        H263   1.083       .  S
C261        C262   1.387       .  A
C261        C465   1.486       .  S
C262        H264   1.081       .  S
N265        N266   1.322       .  A
N265        C269   1.350       .  A
N265       Cu273   2.089       .  S
N266        C267   1.340       .  A
N266       Cu272   2.065       .  S
C267        C268   1.382       .  A
C267        H270   1.083       .  S
C268        C269   1.389       .  A
C268        C556   1.481       .  S
C269        H271   1.083       .  S
Cu272       N275   2.065       .  S
Cu273       N283   2.090       .  S
Cu274       N276   2.071       .  S
Cu274       N282   2.073       .  S
N275        N276   1.319       .  A
N275        C279   1.341       .  A
N276        C277   1.347       .  A
C277        C278   1.389       .  A
C277        H280   1.080       .  S
C278        C279   1.386       .  A
C278        C456   1.485       .  S
C279        H281   1.082       .  S
N282        N283   1.323       .  A
N282        C286   1.344       .  A
N283        C284   1.345       .  A
C284        C285   1.390       .  A
C284        H287   1.080       .  S
C285        C286   1.387       .  A
C285        C476   1.490       .  S
C286        H288   1.082       .  S
N289        N290   1.321       .  A
N289        C293   1.346       .  A
N289       Cu297   2.070       .  S
N290        C291   1.342       .  A
N290       Cu296   2.064       .  S
C291        C292   1.382       .  A
C291        H294   1.082       .  S
C292        C293   1.384       .  A
C292        C636   1.473   1_455  S
C293        H295   1.082       .  S
Cu296       N299   2.064       .  S
Cu297       N307   2.071       .  S
Cu298       N300   2.083       .  S
Cu298       N306   2.084       .  S
N299        N300   1.322       .  A
N299        C303   1.342       .  A
N300        C301   1.348       .  A
C301        C302   1.387       .  A
C301        H304   1.081       .  S
C302        C303   1.382       .  A
C302        C496   1.480       .  S
C303        H305   1.082       .  S
N306        N307   1.323       .  A
N306        C310   1.347       .  A
N307        C308   1.343       .  A
C308        C309   1.381       .  A
C308        H311   1.082       .  S
C309        C310   1.386       .  A
C309        C425   1.478       .  S
C310        H312   1.082       .  S
N313        N314   1.319       .  A
N313        C317   1.348       .  A
N313       Cu321   2.083       .  S
N314        C315   1.340       .  A
N314       Cu320   2.059       .  S
C315        C316   1.386       .  A
C315        H318   1.082       .  S
C316        C317   1.392       .  A
C316        C605   1.491       .  S
C317        H319   1.079       .  S
Cu320       N323   2.059       .  S
Cu321       N331   2.085       .  S
Cu322       N324   2.080       .  S
Cu322       N330   2.081       .  S
N323        N324   1.320       .  A
N323        C327   1.341       .  A
N324        C325   1.347       .  A
C325        C326   1.389       .  A
C325        H328   1.081       .  S
C326        C327   1.384       .  A
C326        C405   1.482       .  S
C327        H329   1.081       .  S
N330        N331   1.324       .  A
N330        C334   1.346       .  A
N331        C332   1.346       .  A
C332        C333   1.385       .  A
C332        H335   1.082       .  S
C333        C334   1.385       .  A
C333        C436   1.482       .  S
C334        H336   1.082       .  S
N337        N338   1.321       .  A
N337        C341   1.348       .  A
N337       Cu345   2.075       .  S
N338        C339   1.340       .  A
N338       Cu344   2.065       .  S
C339        C340   1.383       .  A
C339        H342   1.082       .  S
C340        C341   1.387       .  A
C340        C816   1.480       .  S
C341        H343   1.083       .  S
Cu344       N347   2.066       .  S
Cu345       N355   2.076       .  S
Cu346       N348   2.084       .  S
Cu346       N354   2.085       .  S
N347        N348   1.321       .  A
N347        C351   1.343       .  A
N348        C349   1.348       .  A
C349        C350   1.389       .  A
C349        H352   1.080       .  S
C350        C351   1.384       .  A
C350        C445   1.485       .  S
C351        H353   1.082       .  S
N354        N355   1.324       .  A
N354        C358   1.347       .  A
N355        C356   1.343       .  A
C356        C357   1.384       .  A
C356        H359   1.083       .  S
C357        C358   1.387       .  A
C357        C396   1.485       .  S
C358        H360   1.081       .  S
N361        N362   1.321       .  A
N361        C365   1.346       .  A
N361       Cu369   2.071       .  S
N362        C363   1.343       .  A
N362       Cu368   2.072       .  S
C363        C364   1.385       .  A
C363        H366   1.082       .  S
C364        C365   1.386       .  A
C364        C776   1.481       .  S
C365        H367   1.082       .  S
Cu368       N371   2.072       .  S
Cu369       N379   2.071       .  S
Cu370       N372   2.082       .  S
Cu370       N378   2.083       .  S
N371        N372   1.321       .  A
N371        C375   1.344       .  A
N372        C373   1.347       .  A
C373        C374   1.388       .  A
C373        H376   1.081       .  S
C374        C375   1.385       .  A
C374        C416   1.484       .  S
C375        H377   1.081       .  S
N378        N379   1.321       .  A
N378        C382   1.345       .  A
N379        C380   1.344       .  A
C380        C381   1.387       .  A
C380        H383   1.080       .  S
C381        C382   1.390       .  A
C381        C385   1.490       .  S
C382        H384   1.082       .  S
C385        C386   1.419       .  A
C385        C390   1.407       .  A
C386        C387   1.400       .  A
C386       Br402   1.920       .  S
C387        C388   1.400       .  A
C387        H391   1.084       .  S
C388        C389   1.406       .  A
C388        C392   1.480       .  S
C389        C390   1.398       .  A
C389       Br401   1.919       .  S
C390        H393   1.083       .  S
C392        C394   1.402       .  A
C392        C398   1.407       .  A
C394        C395   1.401       .  A
C394        H399   1.083       .  S
C395        C396   1.414       .  A
C395       Br403   1.919       .  S
C396        C397   1.406       .  A
C397        C398   1.398       .  A
C397        H400   1.083       .  S
C398       Br404   1.920       .  S
C405        C406   1.413       .  A
C405        C410   1.406       .  A
C406        C407   1.398       .  A
C406       Br422   1.921       .  S
C407        C408   1.402       .  A
C407        H411   1.083       .  S
C408        C409   1.408       .  A
C408        C412   1.482       .  S
C409        C410   1.399       .  A
C409       Br421   1.919       .  S
C410        H413   1.083       .  S
C412        C414   1.402       .  A
C412        C418   1.408       .  A
C414        C415   1.399       .  A
C414        H419   1.084       .  S
C415        C416   1.414       .  A
C415       Br423   1.920       .  S
C416        C417   1.406       .  A
C417        C418   1.400       .  A
C417        H420   1.083       .  S
C418       Br424   1.919       .  S
C425        C426   1.410       .  A
C425        C430   1.404       .  A
C426        C427   1.401       .  A
C426       Br442   1.918       .  S
C427        C428   1.403       .  A
C427        H431   1.084       .  S
C428        C429   1.409       .  A
C428        C432   1.480       .  S
C429        C430   1.398       .  A
C429       Br441   1.920       .  S
C430        H433   1.084       .  S
C432        C434   1.402       .  A
C432        C438   1.408       .  A
C434        C435   1.401       .  A
C434        H439   1.084       .  S
C435        C436   1.412       .  A
C435       Br443   1.919       .  S
C436        C437   1.405       .  A
C437        C438   1.399       .  A
C437        H440   1.083       .  S
C438       Br444   1.919       .  S
C445        C446   1.414       .  A
C445        C450   1.407       .  A
C446        C447   1.402       .  A
C446       Br462   1.919       .  S
C447        C448   1.401       .  A
C447        H451   1.083       .  S
C448        C449   1.405       .  A
C448        C452   1.476       .  S
C449        C450   1.397       .  A
C449       Br461   1.920       .  S
C450        H453   1.083       .  S
C452        C454   1.401       .  A
C452        C458   1.404       .  A
C454        C455   1.402       .  A
C454        H459   1.083       .  S
C455        C456   1.416       .  A
C455       Br463   1.919       .  S
C456        C457   1.407       .  A
C457        C458   1.396       .  A
C457        H460   1.083       .  S
C458       Br464   1.919       .  S
C465        C466   1.414       .  A
C465        C470   1.407       .  A
C466        C467   1.399       .  A
C466       Br482   1.920       .  S
C467        C468   1.403       .  A
C467        H471   1.083       .  S
C468        C469   1.408       .  A
C468        C472   1.483       .  S
C469        C470   1.400       .  A
C469       Br481   1.919       .  S
C470        H473   1.083       .  S
C472        C474   1.402       .  A
C472        C478   1.407       .  A
C474        C475   1.400       .  A
C474        H479   1.084       .  S
C475        C476   1.416       .  A
C475       Br483   1.920       .  S
C476        C477   1.409       .  A
C477        C478   1.399       .  A
C477        H480   1.082       .  S
C478       Br484   1.920       .  S
C485        C486   1.410       .  A
C485        C490   1.404       .  A
C486        C487   1.396       .  A
C486       Br502   1.920       .  S
C487        C488   1.401       .  A
C487        H491   1.084       .  S
C488        C489   1.407       .  A
C488        C492   1.476       .  S
C489        C490   1.401       .  A
C489       Br501   1.918       .  S
C490        H493   1.083       .  S
C492        C494   1.401       .  A
C492        C498   1.406       .  A
C494        C495   1.401       .  A
C494        H499   1.083       .  S
C495        C496   1.413       .  A
C495       Br503   1.919       .  S
C496        C497   1.405       .  A
C497        C498   1.397       .  A
C497        H500   1.083       .  S
C498       Br504   1.920       .  S
C505        C506   1.413       .  A
C505        C510   1.405       .  A
C506        C507   1.400       .  A
C506       Br522   1.919       .  S
C507        C508   1.401       .  A
C507        H511   1.084       .  S
C508        C509   1.405       .  A
C508        C512   1.473   1_556  S
C509        C510   1.396       .  A
C509       Br521   1.919       .  S
C510        H513   1.083       .  S
C512        C514   1.401       .  A
C512        C518   1.405       .  A
C514        C515   1.398       .  A
C514        H519   1.084       .  S
C515        C516   1.412       .  A
C515       Br523   1.919       .  S
C516        C517   1.406       .  A
C517        C518   1.397       .  A
C517        H520   1.083       .  S
C518       Br524   1.918       .  S
C525        C526   1.416       .  A
C525        C530   1.407       .  A
C526        C527   1.403       .  A
C526       Br542   1.919       .  S
C527        C528   1.402       .  A
C527        H531   1.084       .  S
C528        C529   1.405       .  A
C528        C532   1.479       .  S
C529        C530   1.396       .  A
C529       Br541   1.919       .  S
C530        H533   1.083       .  S
C532        C534   1.402       .  A
C532        C538   1.405       .  A
C534        C535   1.401       .  A
C534        H539   1.084       .  S
C535        C536   1.415       .  A
C535       Br543   1.919       .  S
C536        C537   1.407       .  A
C537        C538   1.397       .  A
C537        H540   1.083       .  S
C538       Br544   1.919       .  S
C545        C546   1.415       .  A
C545        C550   1.406       .  A
C546        C547   1.401       .  A
C546       Br562   1.920       .  S
C547        C548   1.404       .  A
C547        H551   1.084       .  S
C548        C549   1.410       .  A
C548        C552   1.486       .  S
C549        C550   1.398       .  A
C549       Br561   1.921       .  S
C550        H553   1.083       .  S
C552        C554   1.402       .  A
C552        C558   1.411       .  A
C554        C555   1.395       .  A
C554        H559   1.084       .  S
C555        C556   1.411       .  A
C555       Br563   1.920       .  S
C556        C557   1.405       .  A
C557        C558   1.404       .  A
C557        H560   1.083       .  S
C558       Br564   1.919       .  S
C565        C566   1.412       .  A
C565        C570   1.405       .  A
C566        C567   1.394       .  A
C566       Br582   1.921       .  S
C567        C568   1.399       .  A
C567        H571   1.084       .  S
C568        C569   1.406       .  A
C568        C572   1.472       .  S
C569        C570   1.399       .  A
C569       Br581   1.917       .  S
C570        H573   1.083       .  S
C572        C574   1.399       .  A
C572        C578   1.406       .  A
C574        C575   1.398       .  A
C574        H579   1.084       .  S
C575        C576   1.415       .  A
C575       Br583   1.919       .  S
C576        C577   1.406       .  A
C577        C578   1.396       .  A
C577        H580   1.084       .  S
C578       Br584   1.921       .  S
C585        C586   1.413       .  A
C585        C590   1.405       .  A
C586        C587   1.396       .  A
C586       Br602   1.920       .  S
C587        C588   1.401       .  A
C587        H591   1.084       .  S
C588        C589   1.408       .  A
C588        C592   1.479       .  S
C589        C590   1.401       .  A
C589       Br601   1.918       .  S
C590        H593   1.084       .  S
C592        C594   1.404       .  A
C592        C598   1.408       .  A
C594        C595   1.400       .  A
C594        H599   1.084       .  S
C595        C596   1.409       .  A
C595       Br603   1.919       .  S
C596        C597   1.402       .  A
C597        C598   1.396       .  A
C597        H600   1.084       .  S
C598       Br604   1.919       .  S
C605        C606   1.417       .  A
C605        C610   1.408       .  A
C606        C607   1.401       .  A
C606       Br622   1.919       .  S
C607        C608   1.403       .  A
C607        H611   1.084       .  S
C608        C609   1.409       .  A
C608        C612   1.483   1_545  S
C609        C610   1.396       .  A
C609       Br621   1.923   1_545  S
C610        H613   1.083       .  S
C612        C614   1.402   1_565  A
C612        C618   1.411       .  A
C614        C615   1.395   1_445  A
C614        H619   1.084       .  S
C615        C616   1.411   1_655  A
C615       Br623   1.922   1_565  S
C616        C617   1.405       .  A
C617        C618   1.401       .  A
C617        H620   1.083       .  S
C618       Br624   1.919       .  S
C625        C626   1.411       .  A
C625        C630   1.403       .  A
C626        C627   1.399       .  A
C626       Br642   1.920       .  S
C627        C628   1.404       .  A
C627        H631   1.083       .  S
C628        C629   1.409       .  A
C628        C632   1.481       .  S
C629        C630   1.397       .  A
C629       Br641   1.920       .  S
C630        H633   1.084       .  S
C632        C634   1.404       .  A
C632        C638   1.410       .  A
C634        C635   1.395       .  A
C634        H639   1.084       .  S
C635        C636   1.408       .  A
C635       Br643   1.920       .  S
C636        C637   1.404       .  A
C637        C638   1.400       .  A
C637        H640   1.083   1_655  S
C638       Br644   1.919       .  S
C645        C646   1.413       .  A
C645        C650   1.404       .  A
C646        C647   1.397       .  A
C646       Br662   1.920       .  S
C647        C648   1.399       .  A
C647        H651   1.084       .  S
C648        C649   1.406       .  A
C648        C652   1.471       .  S
C649        C650   1.398       .  A
C649       Br661   1.918       .  S
C650        H653   1.083       .  S
C652        C654   1.399       .  A
C652        C658   1.404       .  A
C654        C655   1.399       .  A
C654        H659   1.084       .  S
C655        C656   1.414       .  A
C655       Br663   1.919       .  S
C656        C657   1.405       .  A
C657        C658   1.396       .  A
C657        H660   1.083       .  S
C658       Br664   1.919       .  S
C665        C666   1.417       .  A
C665        C670   1.405       .  A
C666        C667   1.403       .  A
C666       Br682   1.919       .  S
C667        C668   1.401       .  A
C667        H671   1.084       .  S
C668        C669   1.407       .  A
C668        C672   1.478       .  S
C669        C670   1.395       .  A
C669       Br681   1.921       .  S
C670        H673   1.084       .  S
C672        C674   1.401       .  A
C672        C678   1.406       .  A
C674        C675   1.398       .  A
C674        H679   1.084       .  S
C675        C676   1.413   1_655  A
C675       Br683   1.920       .  S
C676        C677   1.406       .  A
C677        C678   1.400   1_455  A
C677        H680   1.083       .  S
C678       Br684   1.918   1_655  S
C685        C686   1.410       .  A
C685        C690   1.401       .  A
C686        C687   1.398       .  A
C686       Br702   1.919       .  S
C687        C688   1.401       .  A
C687        H691   1.083       .  S
C688        C689   1.407       .  A
C688        C692   1.470       .  S
C689        C690   1.394       .  A
C689       Br701   1.920       .  S
C690        H693   1.083       .  S
C692        C694   1.401       .  A
C692        C698   1.405       .  A
C694        C695   1.398       .  A
C694        H699   1.083       .  S
C695        C696   1.411       .  A
C695       Br703   1.919       .  S
C696        C697   1.405       .  A
C697        C698   1.395       .  A
C697        H700   1.083       .  S
C698       Br704   1.920       .  S
C705        C706   1.415       .  A
C705        C710   1.406       .  A
C706        C707   1.405       .  A
C706       Br722   1.919       .  S
C707        C708   1.402       .  A
C707        H711   1.083       .  S
C708        C709   1.405       .  A
C708        C712   1.476       .  S
C709        C710   1.394       .  A
C709       Br721   1.920       .  S
C710        H713   1.082       .  S
C712        C714   1.402       .  A
C712        C718   1.407       .  A
C714        C715   1.399       .  A
C714        H719   1.084       .  S
C715        C716   1.408       .  A
C715       Br723   1.918       .  S
C716        C717   1.403       .  A
C717        C718   1.401       .  A
C717        H720   1.083       .  S
C718       Br724   1.917       .  S
C725        C726   1.413       .  A
C725        C730   1.404       .  A
C726        C727   1.397       .  A
C726       Br742   1.920       .  S
C727        C728   1.400       .  A
C727        H731   1.084       .  S
C728        C729   1.407       .  A
C728        C732   1.474       .  S
C729        C730   1.399       .  A
C729       Br741   1.919       .  S
C730        H733   1.083       .  S
C732        C734   1.401       .  A
C732        C738   1.405       .  A
C734        C735   1.400       .  A
C734        H739   1.083       .  S
C735        C736   1.414       .  A
C735       Br743   1.919       .  S
C736        C737   1.405       .  A
C737        C738   1.394       .  A
C737        H740   1.083       .  S
C738       Br744   1.920       .  S
C745        C746   1.411       .  A
C745        C750   1.405       .  A
C746        C747   1.395       .  A
C746       Br762   1.920       .  S
C747        C748   1.401       .  A
C747        H751   1.084       .  S
C748        C749   1.408       .  A
C748        C752   1.476       .  S
C749        C750   1.399       .  A
C749       Br761   1.919       .  S
C750        H753   1.084       .  S
C752        C754   1.401       .  A
C752        C758   1.408       .  A
C754        C755   1.397       .  A
C754        H759   1.083       .  S
C755        C756   1.414       .  A
C755       Br763   1.920       .  S
C756        C757   1.405       .  A
C757        C758   1.397       .  A
C757        H760   1.083       .  S
C758       Br764   1.920       .  S
C765        C766   1.408       .  A
C765        C770   1.403       .  A
C766        C767   1.395       .  A
C766       Br782   1.920   1_545  S
C767        C768   1.401       .  A
C767        H771   1.084   1_655  S
C768        C769   1.409       .  A
C768        C772   1.478   1_655  S
C769        C770   1.401       .  A
C769       Br781   1.917       .  S
C770        H773   1.083       .  S
C772        C774   1.402       .  A
C772        C778   1.408       .  A
C774        C775   1.400       .  A
C774        H779   1.084       .  S
C775        C776   1.414       .  A
C775       Br783   1.919       .  S
C776        C777   1.404       .  A
C777        C778   1.396       .  A
C777        H780   1.083       .  S
C778       Br784   1.920   1_455  S
C785        C786   1.412       .  A
C785        C790   1.405       .  A
C786        C787   1.401       .  A
C786       Br802   1.918       .  S
C787        C788   1.402       .  A
C787        H791   1.083       .  S
C788        C789   1.407       .  A
C788        C792   1.475       .  S
C789        C790   1.394       .  A
C789       Br801   1.921       .  S
C790        H793   1.083       .  S
C792        C794   1.400       .  A
C792        C798   1.406       .  A
C794        C795   1.396       .  A
C794        H799   1.084       .  S
C795        C796   1.414       .  A
C795       Br803   1.920       .  S
C796        C797   1.406       .  A
C797        C798   1.399       .  A
C797        H800   1.083       .  S
C798       Br804   1.919       .  S
C805        C806   1.414       .  A
C805        C810   1.404       .  A
C806        C807   1.401       .  A
C806       Br822   1.920       .  S
C807        C808   1.403       .  A
C807        H811   1.084   1_565  S
C808        C809   1.409       .  A
C808        C812   1.480   1_565  S
C809        C810   1.397       .  A
C809       Br821   1.920       .  S
C810        H813   1.083       .  S
C812        C814   1.401       .  A
C812        C818   1.409       .  A
C814        C815   1.395       .  A
C814        H819   1.084       .  S
C815        C816   1.411       .  A
C815       Br823   1.921       .  S
C816        C817   1.406       .  A
C817        C818   1.403       .  A
C817        H820   1.083       .  S
C818       Br824   1.919   1_545  S
C825        C826   1.415       .  A
C825        C830   1.406       .  A
C826        C827   1.398       .  A
C826       Br842   1.920   1_565  S
C827        C828   1.400       .  A
C827        H831   1.084       .  S
C828        C829   1.406       .  A
C828        C832   1.475       .  S
C829        C830   1.399       .  A
C829       Br841   1.919       .  S
C830        H833   1.083       .  S
C832        C834   1.401       .  A
C832        C838   1.406       .  A
C834        C835   1.399       .  A
C834        H839   1.084       .  S
C835        C836   1.412       .  A
C835       Br843   1.920       .  S
C836        C837   1.405       .  A
C837        C838   1.399       .  A
C837        H840   1.083       .  S
C838       Br844   1.918       .  S
C845        C846   1.411       .  A
C845        C850   1.406       .  A
C846        C847   1.400       .  A
C846       Br862   1.919       .  S
C847        C848   1.402       .  A
C847        H851   1.083       .  S
C848        C849   1.406       .  A
C848        C852   1.478       .  S
C849        C850   1.398       .  A
C849       Br861   1.919       .  S
C850        H853   1.083       .  S
C852        C854   1.403       .  A
C852        C858   1.406       .  A
C854        C855   1.399       .  A
C854        H859   1.084       .  S
C855        C856   1.410       .  A
C855       Br863   1.919       .  S
C856        C857   1.406       .  A
C857        C858   1.400       .  A
C857        H860   1.083       .  S
C858       Br864   1.919       .  S
