geometry optimzed in LAMMPS
_audit_creation_date              2020-11-30 
_audit_creation_method            'lammps2cif' 
_symmetry_space_group_name_H-M    'P1' 
_symmetry_Int_Tables_number       1 
_symmetry_cell_setting            triclinic 
loop_ 
_symmetry_equiv_pos_as_xyz 
  x,y,z 
_cell_length_a                    48.057508 
_cell_length_b                    47.89912529997003 
_cell_length_c                    86.16355227235644 
_cell_angle_alpha                 89.85272137477554 
_cell_angle_beta                  90.36907020267776 
_cell_angle_gamma                 90.10353923638968 
loop_ 
_atom_site_label 
_atom_site_type_symbol 
_atom_site_fract_x 
_atom_site_fract_y 
_atom_site_fract_z 
_atom_site_charge 
C1          C  0.66540159  0.40950063  0.34819484     0.03300
C2          C  0.64777328  0.38717598  0.34417687    -0.12800
C3          C  0.63608313  0.38568567  0.32920035     0.00800
C4          C  0.64211453  0.40671227  0.31837020    -0.11300
C5          C  0.65896947  0.42941196  0.32245956     0.03300
C6          C  0.67077978  0.43064971  0.33732528    -0.10800
H7          H  0.64316730  0.37110498  0.35265842     0.08900
H8          H  0.63302799  0.40580345  0.30682864     0.06500
H9          H  0.68381527  0.44825008  0.34051006     0.06300
C10         C  0.64372733  0.58890385  0.21267237     0.03300
C11         C  0.61860451  0.60364967  0.21394187    -0.12800
C12         C  0.60381501  0.60351220  0.22791578     0.00800
C13         C  0.61353795  0.58729750  0.24038720    -0.11300
C14         C  0.63849898  0.57245291  0.23920508     0.03300
C15         C  0.65413010  0.57437096  0.22563136    -0.10800
H16         H  0.61037029  0.61497244  0.20403474     0.08900
H17         H  0.60143492  0.58586078  0.25093575     0.06500
H18         H  0.67344123  0.56283056  0.22477455     0.06300
N19         N  0.41868993  0.78310917  0.33422600    -0.27100
N20         N  0.42319007  0.75694965  0.33013610    -0.34900
C21         C  0.42215938  0.74064141  0.34282951     0.01300
C22         C  0.41670230  0.75744901  0.35544000     0.07300
C23         C  0.41457764  0.78423923  0.34962872    -0.05800
H24         H  0.42451771  0.71815749  0.34282699     0.08000
H25         H  0.40976455  0.80301235  0.35603273     0.09200
Cu26       Cu  0.42876744  0.74496170  0.30732632     0.44200
Cu27       Cu  0.41637731  0.81525282  0.31833816     0.42000
Cu28       Cu  0.41179038  0.79578149  0.27738964     0.43900
N29         N  0.43302879  0.73783713  0.28379134    -0.34500
N30         N  0.42570402  0.75560541  0.27274751    -0.28700
C31         C  0.43310829  0.74501250  0.25890528    -0.04800
C32         C  0.44625772  0.71960085  0.26141302     0.07400
C33         C  0.44563537  0.71582513  0.27733570     0.01200
H34         H  0.43053230  0.75581970  0.24795745     0.08800
H35         H  0.45527344  0.69906813  0.28386375     0.07900
N36         N  0.40808048  0.83638915  0.28560284    -0.35900
N37         N  0.41100496  0.84327068  0.30037998    -0.28100
C38         C  0.41098844  0.87117935  0.30166772    -0.03300
C39         C  0.40778256  0.88255357  0.28703236     0.05300
C40         C  0.40585360  0.85990085  0.27711147     0.03400
H41         H  0.41424997  0.88237579  0.31241339     0.08500
H42         H  0.40431892  0.86047484  0.26457051     0.07300
N43         N  0.44457493  0.18064471  0.21264480    -0.27100
N44         N  0.45063823  0.20691366  0.21598556    -0.34900
C45         C  0.44216829  0.22326027  0.20416402     0.01300
C46         C  0.43012592  0.20645044  0.19296443     0.07300
C47         C  0.43204516  0.17956114  0.19864496    -0.05800
H48         H  0.44464739  0.24571266  0.20372645     0.08000
H49         H  0.42481308  0.16065111  0.19306705     0.09200
Cu50       Cu  0.46962814  0.21943888  0.23660740     0.44200
Cu51       Cu  0.45199812  0.14774823  0.22766199     0.42000
Cu52       Cu  0.47239392  0.16715742  0.26676321     0.43900
N53         N  0.48818447  0.22594393  0.25819833    -0.34500
N54         N  0.48938463  0.20664458  0.26917442    -0.28700
C55         C  0.50435021  0.21646428  0.28123591    -0.04800
C56         C  0.51289226  0.24334051  0.27774417     0.07400
C57         C  0.50213944  0.24869450  0.26306881     0.01200
H58         H  0.50944024  0.20455813  0.29155252     0.08800
H59         H  0.50498342  0.26746210  0.25624174     0.07900
N60         N  0.45808390  0.12790771  0.26065894    -0.35900
N61         N  0.45278153  0.12033221  0.24620659    -0.28100
C62         C  0.44502235  0.09339954  0.24606356    -0.03300
C63         C  0.44476783  0.08364770  0.26120050     0.05300
C64         C  0.45316340  0.10616046  0.27014322     0.03400
H65         H  0.43929768  0.08197315  0.23570405     0.08500
H66         H  0.45516975  0.10686928  0.28264893     0.07300
C67         C  0.38996438  0.67851159  0.46247571     0.03300
C68         C  0.36694705  0.66155381  0.46582374    -0.12800
C69         C  0.36358090  0.65038148  0.48072000     0.00800
C70         C  0.38330604  0.65615957  0.49229705    -0.11300
C71         C  0.40614564  0.67346973  0.48920993     0.03300
C72         C  0.40951801  0.68449920  0.47422544    -0.10800
H73         H  0.35152799  0.65729212  0.45689676     0.08900
H74         H  0.38055372  0.64761012  0.50385388     0.06500
H75         H  0.42709016  0.69797588  0.47175824     0.06300
C76         C  0.56200343  0.70157653  0.60274091     0.03300
C77         C  0.54057264  0.70512950  0.59173514    -0.12800
C78         C  0.54133461  0.69050603  0.57766238     0.00800
C79         C  0.56355160  0.67254597  0.57463272    -0.11300
C80         C  0.58494463  0.66892572  0.58554330     0.03300
C81         C  0.58420957  0.68351725  0.59959059    -0.10800
H82         H  0.52315624  0.71868883  0.59425202     0.08900
H83         H  0.56397822  0.66099540  0.56382511     0.06500
H84         H  0.60061584  0.68053552  0.60812259     0.06300
N85         N  0.77333521  0.45558600  0.47422643    -0.27100
N86         N  0.75274318  0.47385950  0.47470960    -0.34900
C87         C  0.73905754  0.47333697  0.46104318     0.01300
C88         C  0.75159065  0.45378363  0.45159531     0.07300
C89         C  0.77328984  0.44299303  0.46029760    -0.05800
H90         H  0.72052159  0.48535360  0.45842102     0.08000
H91         H  0.78738873  0.42648457  0.45696542     0.09200
Cu92       Cu  0.74194264  0.49608493  0.49455164     0.44200
Cu93       Cu  0.79929492  0.44677457  0.49279248     0.42000
Cu94       Cu  0.77699521  0.47287003  0.52958274     0.43900
N95         N  0.73192480  0.50995789  0.51674016    -0.34500
N96         N  0.74377754  0.50003303  0.52948716    -0.28700
C97         C  0.73220399  0.51201246  0.54194691    -0.04800
C98         C  0.71228485  0.53075511  0.53687368     0.07400
C99         C  0.71265867  0.52890496  0.52080319     0.01200
H100        H  0.73816552  0.50762652  0.55383273     0.08800
H101        H  0.69994670  0.54056827  0.51266763     0.07900
N102        N  0.81436370  0.45264883  0.52646618    -0.35900
N103        N  0.82269233  0.44319652  0.51287691    -0.28100
C104        C  0.84952536  0.43563757  0.51400098    -0.03300
C105        C  0.85841609  0.44057393  0.52901656     0.05300
C106        C  0.83568608  0.45145255  0.53660011     0.03400
H107        H  0.86231380  0.42961625  0.50427534     0.08500
H108        H  0.83545639  0.46040115  0.54812695     0.07300
N109        N  0.17438028  0.45034218  0.59061365    -0.27100
N110        N  0.19819268  0.45889595  0.58469244    -0.34900
C111        C  0.21828574  0.45679436  0.59549171     0.01300
C112        C  0.20655998  0.44628470  0.60885303     0.07300
C113        C  0.17868352  0.44232276  0.60539255    -0.05800
H114        H  0.23958777  0.46362319  0.59394631     0.08000
H115        H  0.16258112  0.43521361  0.61319189     0.09200
Cu116      Cu  0.20160848  0.47662795  0.56309762     0.44200
Cu117      Cu  0.13725462  0.45321066  0.57857503     0.42000
Cu118      Cu  0.13944524  0.49325915  0.54191171     0.43900
N119        N  0.20109226  0.50177789  0.54379952    -0.34500
N120        N  0.17833064  0.50900057  0.53612127    -0.28700
C121        C  0.18512267  0.52815859  0.52529699    -0.04800
C122        C  0.21350652  0.53304429  0.52637512     0.07400
C123        C  0.22289393  0.51585700  0.53813617     0.01200
H124        H  0.17044250  0.53839232  0.51761175     0.08800
H125        H  0.24389258  0.51450655  0.54267926     0.07900
N126        N  0.10417055  0.47425729  0.55097222    -0.35900
N127        N  0.10349474  0.45994906  0.56413393    -0.28100
C128        C  0.07747089  0.45070153  0.56654308    -0.03300
C129        C  0.06101984  0.45960036  0.55433729     0.05300
C130        C  0.07851834  0.47442956  0.54466938     0.03400
H131        H  0.07103628  0.43841088  0.57644739     0.08500
H132        H  0.07297750  0.48471010  0.53389198     0.07300
C133        C  0.29788703  0.42284357  0.71299372     0.03300
C134        C  0.29095200  0.44218837  0.72453004    -0.12800
C135        C  0.30360623  0.44064375  0.73919936     0.00800
C136        C  0.32250977  0.41918957  0.74239631    -0.11300
C137        C  0.32977276  0.39995475  0.73089252     0.03300
C138        C  0.31741062  0.40182542  0.71615062    -0.10800
H139        H  0.27647555  0.45891805  0.72193672     0.08900
H140        H  0.33252797  0.41815919  0.75369997     0.06500
H141        H  0.32335627  0.38739491  0.70709567     0.06300
C142        C  0.28687185  0.60222905  0.84847023     0.03300
C143        C  0.30251054  0.62658041  0.84604668    -0.12800
C144        C  0.31743526  0.63011864  0.83224731     0.00800
C145        C  0.31612361  0.60936878  0.82079967    -0.11300
C146        C  0.29992452  0.58541426  0.82304564     0.03300
C147        C  0.28541060  0.58178202  0.83691777    -0.10800
H148        H  0.30356583  0.64239013  0.85500957     0.08900
H149        H  0.32780732  0.61180636  0.81015709     0.06500
H150        H  0.27333653  0.56294730  0.83880556     0.06300
N151        N  0.54659613  0.81037045  0.73042567    -0.27100
N152        N  0.52908839  0.78927071  0.73215641    -0.34900
C153        C  0.52928761  0.77355641  0.71927419     0.01300
C154        C  0.54778466  0.78531915  0.70896826     0.07300
C155        C  0.55839110  0.80867024  0.71632512    -0.05800
H156        H  0.51635915  0.75534614  0.71738426     0.08000
H157        H  0.57287853  0.82373519  0.71161490     0.09200
Cu158      Cu  0.50457028  0.78323121  0.75152520     0.44200
Cu159      Cu  0.55154759  0.84153357  0.74687988     0.42000
Cu160      Cu  0.51272822  0.83165617  0.78283857     0.43900
N161        N  0.48383554  0.77951067  0.77239069    -0.34500
N162        N  0.48796514  0.79638857  0.78427667    -0.28700
C163        C  0.47258264  0.78754559  0.79632840    -0.04800
C164        C  0.45773224  0.76413817  0.79170508     0.07400
C165        C  0.46532575  0.75980610  0.77642096     0.01200
H166        H  0.47222120  0.79748043  0.80757345     0.08800
H167        H  0.45798214  0.74348114  0.76878198     0.07900
N168        N  0.53371631  0.86792480  0.77701235    -0.35900
N169        N  0.54778395  0.87159973  0.76400959    -0.28100
C170        C  0.55593622  0.89842560  0.76309186    -0.03300
C171        C  0.54649569  0.91218140  0.77611179     0.05300
C172        C  0.53255757  0.89227070  0.78468158     0.03400
H173        H  0.56652148  0.90759882  0.75325341     0.08500
H174        H  0.52094374  0.89563232  0.79524628     0.07300
N175        N  0.56739647  0.22724888  0.83736150    -0.27100
N176        N  0.55595121  0.25175185  0.83423937    -0.34900
C177        C  0.55952358  0.26867370  0.84653727     0.01300
C178        C  0.57396458  0.25416150  0.85788042     0.07300
C179        C  0.57851850  0.22796910  0.85172284    -0.05800
H180        H  0.55048309  0.28925428  0.84759395     0.08000
H181        H  0.58741849  0.21015022  0.85766977     0.09200
Cu182      Cu  0.53163565  0.25969709  0.81471752     0.44200
Cu183      Cu  0.56312594  0.19230271  0.82332224     0.42000
Cu184      Cu  0.51108490  0.19888940  0.79301624     0.43900
N185        N  0.50334843  0.26080366  0.79641063    -0.34500
N186        N  0.49532042  0.23829318  0.78874489    -0.28700
C187        C  0.47568878  0.24543289  0.77829006    -0.04800
C188        C  0.47118339  0.27384646  0.77939482     0.07400
C189        C  0.48909742  0.28295531  0.79098018     0.01200
H190        H  0.46511955  0.23093591  0.77065901     0.08800
H191        H  0.49116879  0.30398860  0.79536182     0.07900
N192        N  0.53105443  0.16191405  0.79841245    -0.35900
N193        N  0.55050569  0.15942752  0.80925739    -0.28100
C194        C  0.55883063  0.13262328  0.80992162    -0.03300
C195        C  0.54384302  0.11775887  0.79896116     0.05300
C196        C  0.52643806  0.13686627  0.79189870     0.03400
H197        H  0.57413546  0.12447451  0.81799223     0.08500
H198        H  0.51126125  0.13280357  0.78285705     0.07300
C199        C  0.38805363  0.31035054  0.09590370     0.03300
C200        C  0.36850826  0.33183607  0.09436736    -0.12800
C201        C  0.36747703  0.34790090  0.08076832     0.00800
C202        C  0.38654423  0.34271700  0.06883482    -0.11300
C203        C  0.40660141  0.32169585  0.07045955     0.03300
C204        C  0.40709787  0.30532057  0.08396820    -0.10800
H205        H  0.35407711  0.33595003  0.10369871     0.08900
H206        H  0.38603408  0.35533428  0.05837047     0.06500
H207        H  0.42261197  0.28907967  0.08532334     0.06300
C208        C  0.58577033  0.31749882  0.96883036     0.03300
C209        C  0.60574075  0.33709201  0.97364909    -0.12800
C210        C  0.60212584  0.35214511  0.98747322     0.00800
C211        C  0.57899913  0.34612959  0.99682558    -0.11300
C212        C  0.55982667  0.32537013  0.99251007     0.03300
C213        C  0.56317453  0.31123454  0.97844463    -0.10800
H214        H  0.62313598  0.34187089  0.96614670     0.08900
H215        H  0.57549733  0.35806663  0.00730041     0.06500
H216        H  0.54750209  0.29641505  0.97462838     0.06300
N217        N  0.76893505  0.56700441  0.08989710    -0.27100
N218        N  0.74437634  0.57313271  0.08388352    -0.34900
C219        C  0.72629414  0.57766257  0.09536771     0.01300
C220        C  0.73978830  0.57324153  0.10939267     0.08900
C221        C  0.76691375  0.56654488  0.10545246    -0.05800
H222        H  0.70455597  0.58263605  0.09357231     0.08000
H223        H  0.78378421  0.56103970  0.11324526     0.09200
Cu224      Cu  0.73497366  0.56815724  0.06074530     0.44200
Cu225      Cu  0.80356957  0.56080655  0.07622703     0.42000
Cu226      Cu  0.79024765  0.56001361  0.03403376     0.43900
N227        N  0.73019163  0.54855122  0.03965604    -0.34500
N228        N  0.75014110  0.54670677  0.02926883    -0.28700
C229        C  0.74197252  0.52907614  0.01799187    -0.04800
C230        C  0.71600512  0.51844393  0.02179932     0.07400
C231        C  0.70923710  0.53148496  0.03558613     0.01200
H232        H  0.75507206  0.52261740  0.00847808     0.08800
H233        H  0.69156932  0.52695790  0.04286825     0.07900
N234        N  0.82919001  0.56364808  0.04426427    -0.35900
N235        N  0.83405817  0.56293085  0.05940518    -0.28100
C236        C  0.86165897  0.56417654  0.06193090    -0.03300
C237        C  0.87464861  0.56568079  0.04771809     0.05300
C238        C  0.85356327  0.56529198  0.03677960     0.03400
H239        H  0.87151551  0.56379007  0.07325537     0.08500
H240        H  0.85579854  0.56550780  0.02429027     0.07300
N241        N  0.17757375  0.56176893  0.97368855    -0.27100
N242        N  0.20312943  0.55394850  0.97741680    -0.34900
C243        C  0.21939568  0.55626819  0.96485557     0.01300
C244        C  0.20319865  0.56593856  0.95270976     0.07300
C245        C  0.17683112  0.56927958  0.95864763    -0.05800
H246        H  0.24133603  0.55122693  0.96457675     0.08000
H247        H  0.15853731  0.57671567  0.95253907     0.09200
Cu248      Cu  0.21428165  0.53903313  0.99912543     0.44200
Cu249      Cu  0.14507469  0.56154935  0.98921935     0.42000
Cu250      Cu  0.15789730  0.52561538  0.02570554     0.43900
N251        N  0.21883515  0.51720548  0.01971883    -0.34500
N252        N  0.19795876  0.51085935  0.02899263    -0.28700
C253        C  0.20708903  0.49319536  0.04005999    -0.04800
C254        C  0.23514608  0.48840428  0.03768900     0.07400
C255        C  0.24190798  0.50418905  0.02477526     0.01200
H256        H  0.19406714  0.48378634  0.04880688     0.08800
H257        H  0.26180887  0.50512146  0.01903956     0.07900
N258        N  0.12045769  0.54424435  0.01980848    -0.35900
N259        N  0.11598863  0.55769812  0.00661098    -0.28100
C260        C  0.08955205  0.56672260  0.00620266    -0.03300
C261        C  0.07674409  0.55837078  0.01975049     0.05300
C262        C  0.09690878  0.54423251  0.02813106     0.03400
H263        H  0.08013965  0.57780068  0.99655700     0.08500
H264        H  0.09441941  0.53398826  0.03924214     0.07300
C265        C  0.90470357  0.56604027  0.04466501     0.01500
C266        C  0.92099187  0.54233725  0.04807930     0.04400
C267        C  0.94941980  0.54223073  0.04440207    -0.11700
C268        C  0.96136491  0.56549153  0.03693723     0.23700
C269        C  0.94515297  0.58923831  0.03361961    -0.12300
C270        C  0.91691977  0.58968231  0.03770901     0.05100
C271        C  0.99086251  0.56466024  0.03226078     0.27500
C272        C  0.01146292  0.57652154  0.04188029    -0.13000
C273        C  0.03957312  0.57514580  0.03756849     0.05600
C274        C  0.04714293  0.56132416  0.02378975    -0.08900
C275        C  0.02639724  0.54959048  0.01411831     0.06400
C276        C  0.99826721  0.55157729  0.01828024    -0.13300
Br277      Br  0.96161066  0.62084812  0.02319218    -0.05400
Br278      Br  0.90414632  0.50943881  0.05699689     0.00300
Br279      Br  0.06749891  0.59315942  0.05026712     0.00700
Br280      Br  0.96971349  0.53614243  0.00494868    -0.03700
Br281      Br  0.89518687  0.62297463  0.03422563     0.00800
Br282      Br  0.97205434  0.51012685  0.04935166    -0.03000
Br283      Br  0.00100098  0.59436607  0.06102915    -0.03800
Br284      Br  0.03631651  0.52927908  0.99563193     0.00100
C285        C  0.62116040  0.37563771  0.99158629     0.01500
C286        C  0.63470911  0.37623563  0.00621295     0.04400
C287        C  0.65062006  0.39967677  0.01060230    -0.11700
C288        C  0.65474406  0.42177399  0.00003181     0.23700
C289        C  0.64268885  0.42051887  0.98513298    -0.12300
C290        C  0.62502439  0.39819245  0.98113919     0.05100
C291        C  0.67078209  0.44690413  0.00478273     0.27500
C292        C  0.65664372  0.47164453  0.00861155    -0.13000
C293        C  0.67168993  0.49556474  0.01304035     0.05600
C294        C  0.70093566  0.49431447  0.01487683    -0.08900
C295        C  0.71503092  0.46916885  0.01127356     0.06400
C296        C  0.70001706  0.44601996  0.00561804    -0.13300
Br297      Br  0.65031434  0.44974019  0.97024766    -0.05400
Br298      Br  0.63237097  0.34470013  0.02016052     0.00300
Br299      Br  0.65192628  0.53022452  0.01601738     0.00700
Br300      Br  0.71937804  0.41277943  0.99911409    -0.03700
Br301      Br  0.60450201  0.40028705  0.96184749     0.00800
Br302      Br  0.66617525  0.40199787  0.03128166    -0.03000
Br303      Br  0.61645808  0.47244284  0.00821972    -0.03800
Br304      Br  0.75431775  0.46460779  0.01542430     0.00100
C305        C  0.42811130  0.31805877  0.05841527     0.01500
C306        C  0.42134395  0.30565547  0.04404295     0.04400
C307        C  0.44177761  0.30315714  0.03246656    -0.11700
C308        C  0.46886154  0.31349788  0.03515314     0.23700
C309        C  0.47564764  0.32564078  0.04957645    -0.12300
C310        C  0.45534336  0.32792818  0.06116924     0.05100
C311        C  0.48986271  0.31380009  0.02258330     0.27500
C312        C  0.51117484  0.29361704  0.02228165    -0.13000
C313        C  0.53377065  0.29689612  0.01209443     0.05600
C314        C  0.53496101  0.32027311  0.00214508    -0.08900
C315        C  0.51281599  0.33950458  0.00180421     0.06400
C316        C  0.49030292  0.33626553  0.01199246    -0.13300
Br317      Br  0.51268005  0.34001843  0.05322582    -0.05400
Br318      Br  0.38399697  0.29244168  0.04019907     0.00300
Br319      Br  0.56378194  0.27021073  0.01228182     0.00700
Br320      Br  0.46051734  0.36322979  0.01190701    -0.03700
Br321      Br  0.46444808  0.34607427  0.08053024     0.00800
Br322      Br  0.43274640  0.28599046  0.01285176    -0.03000
Br323      Br  0.50973693  0.26211418  0.03623441    -0.03800
Br324      Br  0.51364298  0.37061580  0.98754181     0.00100
C325        C  0.34643857  0.37012947  0.07879024     0.01500
C326        C  0.31801898  0.36314780  0.07717608     0.04400
C327        C  0.29873785  0.38374053  0.07272386    -0.11700
C328        C  0.30785650  0.41117124  0.06973856     0.23700
C329        C  0.33577590  0.41863840  0.07255079    -0.12300
C330        C  0.35502237  0.39817379  0.07722074     0.05100
C331        C  0.28900619  0.43102865  0.06176613     0.27500
C332        C  0.28641637  0.42980839  0.04550450    -0.13000
C333        C  0.26817767  0.44796009  0.03768130     0.05600
C334        C  0.25332573  0.46839168  0.04605321    -0.08900
C335        C  0.25610501  0.46964895  0.06238944     0.06400
C336        C  0.27364978  0.45070606  0.07023061    -0.13300
Br337      Br  0.34781765  0.45659743  0.06915830    -0.05400
Br338      Br  0.30563751  0.32510453  0.07993439     0.00300
Br339      Br  0.26240108  0.44311150  0.01563255     0.00700
Br340      Br  0.27688635  0.45158447  0.09255025    -0.03700
Br341      Br  0.39319759  0.40847737  0.08137956     0.00800
Br342      Br  0.26002744  0.37422115  0.06977765    -0.03000
Br343      Br  0.30812259  0.40311533  0.03395176    -0.03800
Br344      Br  0.23704857  0.49801065  0.07409580     0.00100
C345        C  0.57736419  0.26229280  0.87427889     0.01500
C346        C  0.55669259  0.25508351  0.88510913     0.04400
C347        C  0.55996927  0.26243780  0.90079984    -0.11700
C348        C  0.58361273  0.27760075  0.90565337     0.23700
C349        C  0.60422504  0.28495357  0.89480954    -0.12300
C350        C  0.60110985  0.27725357  0.87912909     0.05100
C351        C  0.58532496  0.28801377  0.92182978     0.27500
C352        C  0.57084846  0.31247622  0.92580770    -0.13000
C353        C  0.57072159  0.32170376  0.94125031     0.05600
C354        C  0.58597195  0.30714083  0.95270520    -0.08900
C355        C  0.60102032  0.28303525  0.94870683     0.06400
C356        C  0.60035995  0.27321282  0.93329847    -0.13300
Br357      Br  0.63625959  0.30622053  0.90143184    -0.05400
Br358      Br  0.52328418  0.23619597  0.87831147     0.00300
Br359      Br  0.54906830  0.35404661  0.94676748     0.00700
Br360      Br  0.61945926  0.23928235  0.92789861    -0.03700
Br361      Br  0.62890748  0.28778687  0.86417111     0.00800
Br362      Br  0.53180751  0.25231712  0.91567386    -0.03000
Br363      Br  0.55104975  0.33327777  0.91001946    -0.03800
Br364      Br  0.62207355  0.26343066  0.96440989     0.00100
C365        C  0.54680508  0.94245852  0.77908532     0.01500
C366        C  0.56195935  0.95308891  0.79181689     0.04400
C367        C  0.56111386  0.98177225  0.79518348    -0.11700
C368        C  0.54515355  0.99987636  0.78581118     0.23700
C369        C  0.52994274  0.98928165  0.77309594    -0.12300
C370        C  0.53082391  0.96060190  0.76969249     0.05100
C371        C  0.54476325  0.03015084  0.78921238     0.27500
C372        C  0.52560038  0.04094544  0.79993872    -0.13000
C373        C  0.52558454  0.06965362  0.80330735     0.05600
C374        C  0.54473868  0.08754975  0.79596737    -0.08900
C375        C  0.56394595  0.07674951  0.78528682     0.06400
C376        C  0.56388175  0.04807094  0.78185620    -0.13300
Br377      Br  0.50754652  0.01411737  0.76055739    -0.05400
Br378      Br  0.58449985  0.92843975  0.80437893     0.00300
Br379      Br  0.49943960  0.08454011  0.81801633     0.00700
Br380      Br  0.58975436  0.03320422  0.76698713    -0.03700
Br381      Br  0.50924450  0.94612133  0.75252630     0.00800
Br382      Br  0.58164950  0.99641519  0.81268083    -0.03000
Br383      Br  0.49932442  0.01633492  0.80988372    -0.03800
Br384      Br  0.59016701  0.10133496  0.77529868     0.00100
C385        C  0.33531025  0.65489644  0.82975461     0.01500
C386        C  0.35944996  0.65896560  0.83891628     0.04400
C387        C  0.37851147  0.68010798  0.83499949    -0.11700
C388        C  0.37419565  0.69627843  0.82152650     0.23700
C389        C  0.34939993  0.69325024  0.81286757    -0.12300
C390        C  0.32970718  0.67300935  0.81718743     0.05100
C391        C  0.39698752  0.71394504  0.81539778     0.27500
C392        C  0.39580580  0.74321160  0.81658331    -0.13000
C393        C  0.41569509  0.75985164  0.80894859     0.05600
C394        C  0.43784855  0.74712309  0.80084956    -0.08900
C395        C  0.44010660  0.71769531  0.80080407     0.06400
C396        C  0.41923716  0.70121720  0.80757407    -0.13300
Br397      Br  0.34323789  0.71560181  0.79448822    -0.05400
Br398      Br  0.36795283  0.63411759  0.85594918     0.00300
Br399      Br  0.41078043  0.79983637  0.80866408     0.00700
Br400      Br  0.42050533  0.66104187  0.80557612    -0.03700
Br401      Br  0.29516916  0.66983468  0.80574437     0.00800
Br402      Br  0.41139869  0.68606410  0.84754546    -0.03000
Br403      Br  0.36640438  0.76030704  0.82838015    -0.03800
Br404      Br  0.47232966  0.69953414  0.79213926     0.00100
C405        C  0.27314891  0.59746289  0.86344992     0.01500
C406        C  0.24498852  0.60462278  0.86535618     0.04400
C407        C  0.23205604  0.60016720  0.87974006    -0.11700
C408        C  0.24742755  0.58884228  0.89221794     0.23700
C409        C  0.27558266  0.58162398  0.89027310    -0.12300
C410        C  0.28831268  0.58552274  0.87581733     0.05100
C411        C  0.23399812  0.58382590  0.90734665     0.27500
C412        C  0.23529949  0.60437960  0.91898550    -0.13000
C413        C  0.22450098  0.59870904  0.93377289     0.05600
C414        C  0.21258082  0.57245937  0.93692766    -0.08900
C415        C  0.21062772  0.55215528  0.92518419     0.06400
C416        C  0.22129425  0.55786893  0.91036419    -0.13300
Br417      Br  0.29661456  0.56639661  0.90746632    -0.05400
Br418      Br  0.22423976  0.62021535  0.84818139     0.00300
Br419      Br  0.22625824  0.62670352  0.94981003     0.00700
Br420      Br  0.21923277  0.53002211  0.89424847    -0.03700
Br421      Br  0.32621095  0.57361082  0.87276035     0.00800
Br422      Br  0.19333738  0.60933558  0.88241010    -0.03000
Br423      Br  0.25254417  0.63995055  0.91472179    -0.03800
Br424      Br  0.19401479  0.51632584  0.92954528     0.00100
C425        C  0.29867530  0.56386073  0.81092655     0.01500
C426        C  0.27804779  0.56527013  0.79927729     0.04400
C427        C  0.27717982  0.54498473  0.78753309    -0.11700
C428        C  0.29730516  0.52365087  0.78727723     0.23700
C429        C  0.31798882  0.52230605  0.79892483    -0.12300
C430        C  0.31844129  0.54221593  0.81086530     0.05100
C431        C  0.29715712  0.50295467  0.77457201     0.27500
C432        C  0.28483294  0.47656561  0.77680499    -0.13000
C433        C  0.28589160  0.45646817  0.76495887     0.05600
C434        C  0.29937678  0.46273006  0.75088155    -0.08900
C435        C  0.31134026  0.48934812  0.74860364     0.06400
C436        C  0.31015977  0.50943426  0.76042233    -0.13300
Br437      Br  0.34593932  0.49346014  0.79830749    -0.05400
Br438      Br  0.25121318  0.59516972  0.79940292     0.00300
Br439      Br  0.26908058  0.42028136  0.76804192     0.00700
Br440      Br  0.32735731  0.54553163  0.75753944    -0.03700
Br441      Br  0.34605164  0.53996337  0.82717653     0.00800
Br442      Br  0.24858412  0.54634779  0.77173699    -0.03000
Br443      Br  0.26723606  0.46785734  0.79629371    -0.03800
Br444      Br  0.33105705  0.49786055  0.72974865     0.00100
C445        C  0.35170570  0.37920598  0.73430534     0.01500
C446        C  0.34513081  0.35055669  0.73543545     0.04400
C447        C  0.36515953  0.33164256  0.74111267    -0.11700
C448        C  0.39154062  0.34142231  0.74583065     0.23700
C449        C  0.39867023  0.36968930  0.74374331    -0.12300
C450        C  0.37887487  0.38852212  0.73786573     0.05100
C451        C  0.41101624  0.32271668  0.75421860     0.27500
C452        C  0.40964775  0.32086281  0.77050996    -0.13000
C453        C  0.42926463  0.30481461  0.77875610     0.05600
C454        C  0.45037591  0.29051017  0.77070812    -0.08900
C455        C  0.45136717  0.29198580  0.75434021     0.06400
C456        C  0.43165454  0.30804110  0.74612158    -0.13300
Br457      Br  0.43528403  0.38273197  0.74956765    -0.05400
Br458      Br  0.30825897  0.33745352  0.73021676     0.00300
Br459      Br  0.42638328  0.30177282  0.80103952     0.00700
Br460      Br  0.43296170  0.31041477  0.72378445    -0.03700
Br461      Br  0.38892322  0.42722908  0.73483385     0.00800
Br462      Br  0.35631812  0.29250710  0.74303935    -0.03000
Br463      Br  0.38080274  0.34054976  0.78148785    -0.03800
Br464      Br  0.48055690  0.27333193  0.74314480     0.00100
C465        C  0.22058711  0.44303561  0.62397220     0.01500
C466        C  0.21188775  0.45892042  0.63682702     0.04400
C467        C  0.22581467  0.45620860  0.65112675    -0.11700
C468        C  0.24835701  0.43765707  0.65259174     0.23700
C469        C  0.25751737  0.42234173  0.63969106    -0.12300
C470        C  0.24356979  0.42491548  0.62539404     0.05100
C471        C  0.26162377  0.43333999  0.66790053     0.27500
C472        C  0.28564601  0.44851887  0.67201412    -0.13000
C473        C  0.29809208  0.44428852  0.68661596     0.05600
C474        C  0.28587230  0.42574205  0.69731749    -0.08900
C475        C  0.26188375  0.41051409  0.69317650     0.06400
C476        C  0.24998553  0.41402337  0.67837280    -0.13300
Br477      Br  0.28913267  0.39778528  0.64171692    -0.05400
Br478      Br  0.18176715  0.48534124  0.63480425     0.00300
Br479      Br  0.33221113  0.46337765  0.69184292     0.00700
Br480      Br  0.21771780  0.39248817  0.67233423    -0.03700
Br481      Br  0.25526621  0.40262899  0.60797889     0.00800
Br482      Br  0.21435969  0.47807715  0.66874986    -0.03000
Br483      Br  0.30113743  0.47532031  0.65770326    -0.03800
Br484      Br  0.24522898  0.38513791  0.70784918     0.00100
C485        C  0.88751441  0.44272736  0.53415076     0.01500
C486        C  0.90261444  0.46735978  0.53110207     0.04400
C487        C  0.93079080  0.46911352  0.53534858    -0.11700
C488        C  0.94370276  0.44648348  0.54295305     0.23700
C489        C  0.92841129  0.42213735  0.54637380    -0.12300
C490        C  0.90036107  0.42013418  0.54178404     0.05100
C491        C  0.97372834  0.44795049  0.54661658     0.27500
C492        C  0.99302716  0.43644115  0.53622088    -0.13000
C493        C  0.02166802  0.43941953  0.53906468     0.05600
C494        C  0.03103971  0.45458992  0.55208746    -0.08900
C495        C  0.01168988  0.46561725  0.56267487     0.06400
C496        C  0.98302467  0.46208023  0.55998960    -0.13300
Br497      Br  0.94611091  0.39155691  0.55715583    -0.05400
Br498      Br  0.88479769  0.49859338  0.52092206     0.00300
Br499      Br  0.04799893  0.42188709  0.52537691     0.00700
Br500      Br  0.95633696  0.47716139  0.57434579    -0.03700
Br501      Br  0.87965848  0.38630223  0.54554731     0.00800
Br502      Br  0.95200782  0.50218949  0.53038438    -0.03000
Br503      Br  0.98008356  0.41730765  0.51784059    -0.03800
Br504      Br  0.02423549  0.48693072  0.58037662     0.00100
C505        C  0.69480246  0.54925734  0.54654059     0.01500
C506        C  0.66563794  0.54968282  0.54436852     0.04400
C507        C  0.64925282  0.56879500  0.55262803    -0.11700
C508        C  0.66171288  0.58674643  0.56358487     0.23700
C509        C  0.69047283  0.58509592  0.56655748    -0.12300
C510        C  0.70713387  0.56686665  0.55784231     0.05100
C511        C  0.64483974  0.60885401  0.57097026     0.27500
C512        C  0.64532110  0.63612000  0.56477801    -0.13000
C513        C  0.62710743  0.65646457  0.57050344     0.05600
C514        C  0.60768738  0.64935713  0.58202050    -0.08900
C515        C  0.60807151  0.62250247  0.58875703     0.06400
C516        C  0.62702619  0.60239038  0.58341060    -0.13300
Br517      Br  0.70694001  0.60848977  0.58236829    -0.05400
Br518      Br  0.64769043  0.52336790  0.53060467     0.00300
Br519      Br  0.62829308  0.69406753  0.56242189     0.00700
Br520      Br  0.62808251  0.56572406  0.59269484    -0.03700
Br521      Br  0.74699288  0.56799807  0.56074419     0.00800
Br522      Br  0.60972659  0.57105931  0.54861042    -0.03000
Br523      Br  0.66992973  0.64519872  0.54787595    -0.03800
Br524      Br  0.58143301  0.61274605  0.60453807     0.00100
C525        C  0.56054930  0.71545365  0.61797871     0.01500
C526        C  0.54453096  0.70344010  0.62989612     0.04400
C527        C  0.54394824  0.71591087  0.64463475    -0.11700
C528        C  0.55919361  0.74055830  0.64744875     0.23700
C529        C  0.57506583  0.75270024  0.63550267    -0.12300
C530        C  0.57587115  0.74005196  0.62078805     0.05100
C531        C  0.55790154  0.75392220  0.66291333     0.27500
C532        C  0.53664545  0.77325689  0.66607902    -0.13000
C533        C  0.53410812  0.78450605  0.68105112     0.05600
C534        C  0.55259271  0.77615748  0.69292359    -0.08900
C535        C  0.57425169  0.75734146  0.68969118     0.06400
C536        C  0.57698579  0.74629431  0.67466328    -0.13300
Br537      Br  0.59548605  0.78670056  0.63936400    -0.05400
Br538      Br  0.52370424  0.66965177  0.62603525     0.00300
Br539      Br  0.50499421  0.81096952  0.68542009     0.00700
Br540      Br  0.60620831  0.72000297  0.67023539    -0.03700
Br541      Br  0.59776533  0.75638563  0.60441590     0.00800
Br542      Br  0.52231394  0.69929654  0.66104587    -0.03000
Br543      Br  0.51041929  0.78342442  0.64999601    -0.03800
Br544      Br  0.59950709  0.74606567  0.70601799     0.00100
C545        C  0.42584497  0.68033815  0.50195565     0.01500
C546        C  0.41634888  0.69518533  0.51503993     0.04400
C547        C  0.43388694  0.69883674  0.52801490    -0.11700
C548        C  0.46115938  0.68821120  0.52784959     0.23700
C549        C  0.47106815  0.67437488  0.51456886    -0.12300
C550        C  0.45344814  0.67036326  0.50164996     0.05100
C551        C  0.47937499  0.69085210  0.54173694     0.27500
C552        C  0.49813046  0.71339263  0.54299605    -0.13000
C553        C  0.51784869  0.71395878  0.55514755     0.05600
C554        C  0.51834371  0.69232571  0.56625540    -0.08900
C555        C  0.49858463  0.67060091  0.56546487     0.06400
C556        C  0.47917892  0.66980719  0.55319439    -0.13300
Br557      Br  0.50862914  0.66016136  0.51436060    -0.05400
Br558      Br  0.37940992  0.71100264  0.51509885     0.00300
Br559      Br  0.54526330  0.74335881  0.55607653     0.00700
Br560      Br  0.45289307  0.63942607  0.55174072    -0.03700
Br561      Br  0.46681635  0.64999286  0.48390141     0.00800
Br562      Br  0.42047857  0.71778168  0.54621320    -0.03000
Br563      Br  0.49714334  0.74297565  0.52778145    -0.03800
Br564      Br  0.49886247  0.64141978  0.58096015     0.00100
C565        C  0.23058566  0.55349025  0.51783545     0.01500
C566        C  0.23412158  0.55096347  0.50166215     0.04400
C567        C  0.25361010  0.56796826  0.49398359    -0.11700
C568        C  0.27000804  0.58695734  0.50252183     0.23700
C569        C  0.26574450  0.59022819  0.51856412    -0.12300
C570        C  0.24573701  0.57387909  0.52616313     0.05100
C571        C  0.29299513  0.60233652  0.49498700     0.27500
C572        C  0.31907733  0.58932969  0.49330173    -0.13000
C573        C  0.34193819  0.60478801  0.48791421     0.05600
C574        C  0.33889466  0.63342656  0.48454254    -0.08900
C575        C  0.31263736  0.64627433  0.48588122     0.06400
C576        C  0.28959945  0.63059038  0.49085784    -0.13300
Br577      Br  0.28833279  0.61625188  0.53025377    -0.05400
Br578      Br  0.21400319  0.52279585  0.49019839     0.00300
Br579      Br  0.37755403  0.58686219  0.48534042     0.00700
Br580      Br  0.25354495  0.64789585  0.49261844    -0.03700
Br581      Br  0.23896792  0.57978663  0.54798797     0.00800
Br582      Br  0.25877143  0.56463894  0.47188799    -0.03000
Br583      Br  0.32370833  0.55063556  0.49907030    -0.03800
Br584      Br  0.30865591  0.68579708  0.48205683     0.00100
C585        C  0.41904014  0.21558549  0.17781893     0.01500
C586        C  0.39169142  0.22594546  0.17660669     0.04400
C587        C  0.38275299  0.23903729  0.16280487    -0.11700
C588        C  0.40116662  0.24148865  0.15020800     0.23700
C589        C  0.42767099  0.22896960  0.15101645    -0.12300
C590        C  0.43665094  0.21616678  0.16484366     0.05100
C591        C  0.39458688  0.26016769  0.13695455     0.27500
C592        C  0.37852249  0.25066867  0.12427670    -0.13000
C593        C  0.37559989  0.26756605  0.11097671     0.05600
C594        C  0.38919992  0.29360951  0.11025453    -0.08900
C595        C  0.40440814  0.30350048  0.12311999     0.06400
C596        C  0.40671193  0.28699910  0.13654871    -0.13300
Br597      Br  0.45226553  0.23095554  0.13341337    -0.05400
Br598      Br  0.36689974  0.22287261  0.19403575     0.00300
Br599      Br  0.35329517  0.25510822  0.09362821     0.00700
Br600      Br  0.42709066  0.30080592  0.15434068    -0.03700
Br601      Br  0.47362409  0.20073833  0.16630881     0.00800
Br602      Br  0.34596684  0.25490234  0.16141167    -0.03000
Br603      Br  0.36125261  0.21433988  0.12498468    -0.03800
Br604      Br  0.42298258  0.33920474  0.12207964     0.00100
C605        C  0.41222944  0.74820530  0.37150966     0.01500
C606        C  0.43524711  0.74245983  0.38116654     0.04400
C607        C  0.43107403  0.73174354  0.39616995    -0.11700
C608        C  0.40386880  0.72654960  0.40146197     0.23700
C609        C  0.38080788  0.73283278  0.39190130    -0.12300
C610        C  0.38499033  0.74394826  0.37697761     0.05100
C611        C  0.39960330  0.71417916  0.41702966     0.27500
C612        C  0.40089117  0.68501560  0.41901249    -0.13000
C613        C  0.39794155  0.67328039  0.43389180     0.05600
C614        C  0.39304592  0.69070649  0.44678159    -0.08900
C615        C  0.39079762  0.71983719  0.44465354     0.06400
C616        C  0.39461701  0.73157744  0.42985014    -0.13300
Br617      Br  0.34360396  0.72553570  0.39916424    -0.05400
Br618      Br  0.47243836  0.74957010  0.37383223     0.00300
Br619      Br  0.40142190  0.63341303  0.43660888     0.00700
Br620      Br  0.39335953  0.77153538  0.42706932    -0.03700
Br621      Br  0.35348810  0.75296728  0.36391566     0.00800
Br622      Br  0.46254046  0.72387924  0.40947915    -0.03000
Br623      Br  0.40683344  0.66128838  0.40126509    -0.03800
Br624      Br  0.38112170  0.74358272  0.46185709     0.00100
C625        C  0.43641985  0.05544041  0.26657277     0.01500
C626        C  0.41165438  0.04303017  0.26084616     0.04400
C627        C  0.40531240  0.01515780  0.26456744    -0.11700
C628        C  0.42260580  0.00015342  0.27482651     0.23700
C629        C  0.44591724  0.01320779  0.28163415    -0.12300
C630        C  0.45345468  0.04039088  0.27710467     0.05100
C631        C  0.41771619  0.96999202  0.27748416     0.27500
C632        C  0.39699050  0.96093172  0.28781910    -0.13000
C633        C  0.39284957  0.93220677  0.29036216     0.05600
C634        C  0.41013683  0.91248224  0.28300619    -0.08900
C635        C  0.43097557  0.92169290  0.27268454     0.06400
C636        C  0.43434497  0.95034604  0.26972292    -0.13300
Br637      Br  0.46783935  0.99333897  0.29693027    -0.05400
Br638      Br  0.38544411  0.06420224  0.24847301     0.00300
Br639      Br  0.36288580  0.92001262  0.30358960     0.00700
Br640      Br  0.46220576  0.96289805  0.25519384    -0.03700
Br641      Br  0.48850222  0.05543295  0.28435762     0.00800
Br642      Br  0.37336609  0.99712981  0.25524861    -0.03000
Br643      Br  0.37480237  0.98798277  0.29874463    -0.03800
Br644      Br  0.45659663  0.89562694  0.26344762     0.00100
C645        C  0.57830184  0.62047685  0.22968169     0.01500
C646        C  0.55452965  0.61549907  0.22033931     0.04400
C647        C  0.53049872  0.63192538  0.22223194    -0.11700
C648        C  0.52945490  0.65185008  0.23421858     0.23700
C649        C  0.55298195  0.65629815  0.24377401    -0.12300
C650        C  0.57766031  0.64156273  0.24106633     0.05100
C651        C  0.50380390  0.66811862  0.23721800     0.27500
C652        C  0.50341452  0.69694446  0.23397794    -0.13000
C653        C  0.48352274  0.71420945  0.24105724     0.05600
C654        C  0.46265452  0.70222153  0.25053537    -0.08900
C655        C  0.46065281  0.67283710  0.25162204     0.06400
C656        C  0.48176242  0.65589904  0.24551852    -0.13300
Br657      Br  0.55122948  0.68212379  0.26094432    -0.05400
Br658      Br  0.55417054  0.58525064  0.20558040     0.00300
Br659      Br  0.48779137  0.75414012  0.23913434     0.00700
Br660      Br  0.48189304  0.61633311  0.24985593    -0.03700
Br661      Br  0.61096008  0.65131809  0.25254598     0.00800
Br662      Br  0.49907217  0.62732628  0.20842960    -0.03000
Br663      Br  0.53196454  0.71287331  0.22096444    -0.03800
Br664      Br  0.42922578  0.65566910  0.26176617     0.00100
C665        C  0.72704968  0.57382282  0.12502326     0.01500
C666        C  0.74067098  0.58723572  0.13757644     0.04400
C667        C  0.72797776  0.58808487  0.15222989    -0.11700
C668        C  0.70050060  0.57836266  0.15401306     0.23700
C669        C  0.68657942  0.56570757  0.14143892    -0.12300
C670        C  0.70047154  0.56175373  0.12734749     0.05100
C671        C  0.68620957  0.58129417  0.16909879     0.27500
C672        C  0.68010023  0.55738483  0.17798612    -0.13000
C673        C  0.66427895  0.55984334  0.19152180     0.05600
C674        C  0.65803411  0.58656657  0.19752900    -0.08900
C675        C  0.66549319  0.61066066  0.18898329     0.06400
C676        C  0.67801604  0.60786240  0.17436759    -0.13300
Br677      Br  0.64809051  0.55441960  0.14335521    -0.05400
Br678      Br  0.77563645  0.60647373  0.13479609     0.00300
Br679      Br  0.64921023  0.52632304  0.20082775     0.00700
Br680      Br  0.68328783  0.64033109  0.16135780    -0.03700
Br681      Br  0.68360317  0.53756841  0.11199584     0.00800
Br682      Br  0.74822115  0.60250692  0.16993619    -0.03000
Br683      Br  0.69366940  0.52118625  0.17172974    -0.03800
Br684      Br  0.66007725  0.64757647  0.19740407     0.00100
C685        C  0.64621182  0.55193931  0.25128024     0.01500
C686        C  0.63065243  0.52707125  0.25254389     0.04400
C687        C  0.63681530  0.50782801  0.26435681    -0.11700
C688        C  0.65868598  0.51323600  0.27488363     0.23700
C689        C  0.67508521  0.53745981  0.27323257    -0.12300
C690        C  0.66888449  0.55683024  0.26138367     0.05100
C691        C  0.66290277  0.49403750  0.28816706     0.27500
C692        C  0.64749933  0.49817215  0.30181733    -0.13000
C693        C  0.64712023  0.47742930  0.31336743     0.05600
C694        C  0.66247986  0.45266627  0.31136961    -0.08900
C695        C  0.67904870  0.44918040  0.29807845     0.06400
C696        C  0.67921633  0.46985587  0.28645477    -0.13300
Br697      Br  0.70557784  0.54413618  0.28739140    -0.05400
Br698      Br  0.60110636  0.51907250  0.23789430     0.00300
Br699      Br  0.62370360  0.48194021  0.33130696     0.00700
Br700      Br  0.70044639  0.46451891  0.26778327    -0.03700
Br701      Br  0.69088643  0.59030067  0.25920755     0.00800
Br702      Br  0.61491729  0.47417461  0.26636565    -0.03000
Br703      Br  0.62549880  0.53156435  0.30415630    -0.03800
Br704      Br  0.70071946  0.41564200  0.29562193     0.00100
C705        C  0.61710995  0.36259184  0.32465112     0.01500
C706        C  0.58947577  0.36860462  0.32007903     0.04400
C707        C  0.57265147  0.34760666  0.31353082    -0.11700
C708        C  0.58281217  0.32012317  0.31223884     0.23700
C709        C  0.60968355  0.31364823  0.31784235    -0.12300
C710        C  0.62708927  0.33495858  0.32363233     0.05100
C711        C  0.56598327  0.29868585  0.30394238     0.27500
C712        C  0.54255661  0.28650757  0.31104512    -0.13000
C713        C  0.52495797  0.26860761  0.30248399     0.05600
C714        C  0.53163428  0.26151932  0.28703308    -0.08900
C715        C  0.55623647  0.27218795  0.28036061     0.06400
C716        C  0.57275714  0.29146602  0.28857385    -0.13300
Br717      Br  0.62282349  0.27563160  0.31715042    -0.05400
Br718      Br  0.57452528  0.40568290  0.32278853     0.00300
Br719      Br  0.49088039  0.25540676  0.31171286     0.00700
Br720      Br  0.60425275  0.30874219  0.27854298    -0.03700
Br721      Br  0.66527319  0.32659759  0.32891816     0.00800
Br722      Br  0.53610097  0.35681604  0.30561776    -0.03000
Br723      Br  0.53453407  0.29471253  0.33247536    -0.03800
Br724      Br  0.56848824  0.25923460  0.26032870     0.00100
C725        C  0.74159150  0.44429179  0.43623964     0.01500
C726        C  0.73051479  0.41716487  0.43440061     0.04400
C727        C  0.71879227  0.40911721  0.42007358    -0.11700
C728        C  0.71767779  0.42828119  0.40766282     0.23700
C729        C  0.72944828  0.45507707  0.40936909    -0.12300
C730        C  0.74179800  0.46288971  0.42354868     0.05100
C731        C  0.70376132  0.42062447  0.39285086     0.27500
C732        C  0.71965442  0.41110824  0.38025276    -0.13000
C733        C  0.70682094  0.40634471  0.36578075     0.05600
C734        C  0.67810472  0.41133214  0.36383092    -0.08900
C735        C  0.66205084  0.42007258  0.37655373     0.06400
C736        C  0.67483542  0.42448051  0.39108506    -0.13300
Br737      Br  0.72805627  0.48125883  0.39231987    -0.05400
Br738      Br  0.73017326  0.39136594  0.45164153     0.00300
Br739      Br  0.72857583  0.39325217  0.34852771     0.00700
Br740      Br  0.65298287  0.43668551  0.40849892    -0.03700
Br741      Br  0.76003691  0.49865166  0.42541435     0.00800
Br742      Br  0.70378248  0.37204186  0.41743043    -0.03000
Br743      Br  0.75914835  0.40541090  0.38279249    -0.03800
Br744      Br  0.62289191  0.42761048  0.37382422     0.00100
loop_ 
_geom_bond_atom_site_label_1 
_geom_bond_atom_site_label_2 
_geom_bond_distance 
_geom_bond_site_symmetry_2 
_ccdc_geom_bond_type 
C1            C2   1.406       .  A
C1            C6   1.403       .  A
C1          C734   1.478       .  S
C2            C3   1.406       .  A
C2            H7   1.084       .  S
C3            C4   1.402       .  A
C3          C705   1.484       .  S
C4            C5   1.399       .  A
C4            H8   1.084       .  S
C5            C6   1.399       .  A
C5          C694   1.476       .  S
C6            H9   1.084       .  S
C10          C11   1.405       .  A
C10          C15   1.404       .  A
C10         C674   1.483       .  S
C11          C12   1.402       .  A
C11          H16   1.083       .  S
C12          C13   1.402       .  A
C12         C645   1.481       .  S
C13          C14   1.400       .  A
C13          H17   1.084       .  S
C14          C15   1.397       .  A
C14         C685   1.475       .  S
C15          H18   1.084       .  S
N19          N20   1.321       .  A
N19          C23   1.344       .  A
N19         Cu27   2.060       .  S
N20          C21   1.344       .  A
N20         Cu26   2.068       .  S
C21          C22   1.381       .  A
C21          H24   1.083       .  S
C22          C23   1.380       .  A
C22         C605   1.470       .  S
C23          H25   1.082       .  S
Cu26         N29   2.069       .  S
Cu27         N37   2.061       .  S
Cu28         N30   2.079       .  S
Cu28         N36   2.080       .  S
N29          N30   1.321       .  A
N29          C33   1.341       .  A
N30          C31   1.348       .  A
C31          C32   1.388       .  A
C31          H34   1.081       .  S
C32          C33   1.384       .  A
C32         C654   1.486       .  S
C33          H35   1.082       .  S
N36          N37   1.323       .  A
N36          C40   1.345       .  A
N37          C38   1.342       .  A
C38          C39   1.380       .  A
C38          H41   1.082       .  S
C39          C40   1.386       .  A
C39         C634   1.478       .  S
C40          H42   1.083       .  S
N43          N44   1.323       .  A
N43          C47   1.346       .  A
N43         Cu51   2.066       .  S
N44          C45   1.345       .  A
N44         Cu50   2.081       .  S
C45          C46   1.382       .  A
C45          H48   1.082       .  S
C46          C47   1.380       .  A
C46         C585   1.472       .  S
C47          H49   1.082       .  S
Cu50         N53   2.082       .  S
Cu51         N61   2.066       .  S
Cu52         N54   2.069       .  S
Cu52         N60   2.069       .  S
N53          N54   1.322       .  A
N53          C57   1.345       .  A
N54          C55   1.345       .  A
C55          C56   1.383       .  A
C55          H58   1.082       .  S
C56          C57   1.386       .  A
C56         C714   1.484       .  S
C57          H59   1.082       .  S
N60          N61   1.321       .  A
N60          C64   1.344       .  A
N61          C62   1.342       .  A
C62          C63   1.384       .  A
C62          H65   1.082       .  S
C63          C64   1.385       .  A
C63         C625   1.483       .  S
C64          H66   1.082       .  S
C67          C68   1.402       .  A
C67          C72   1.407       .  A
C67         C614   1.480       .  S
C68          C69   1.400       .  A
C68          H73   1.084       .  S
C69          C70   1.399       .  A
C69         C574   1.475       .  S
C70          C71   1.401       .  A
C70          H74   1.085       .  S
C71          C72   1.404       .  A
C71         C545   1.483       .  S
C72          H75   1.084       .  S
C76          C77   1.406       .  A
C76          C81   1.403       .  A
C76         C525   1.475       .  S
C77          C78   1.403       .  A
C77          H82   1.084       .  S
C78          C79   1.399       .  A
C78         C554   1.477       .  S
C79          C80   1.399       .  A
C79          H83   1.085       .  S
C80          C81   1.400       .  A
C80         C514   1.475       .  S
C81          H84   1.084       .  S
N85          N86   1.323       .  A
N85          C89   1.345       .  A
N85         Cu93   2.066       .  S
N86          C87   1.345       .  A
N86         Cu92   2.085       .  S
C87          C88   1.384       .  A
C87          H90   1.084       .  S
C88          C89   1.381       .  A
C88         C725   1.477       .  S
C89          H91   1.083       .  S
Cu92         N95   2.085       .  S
Cu93        N103   2.065       .  S
Cu94         N96   2.061       .  S
Cu94        N102   2.061       .  S
N95          N96   1.322       .  A
N95          C99   1.346       .  A
N96          C97   1.343       .  A
C97          C98   1.382       .  A
C97         H100   1.082       .  S
C98          C99   1.388       .  A
C98         C505   1.483       .  S
C99         H101   1.082       .  S
N102        N103   1.321       .  A
N102        C106   1.343       .  A
N103        C104   1.343       .  A
C104        C105   1.381       .  A
C104        H107   1.082       .  S
C105        C106   1.380       .  A
C105        C485   1.468       .  S
C106        H108   1.083       .  S
N109        N110   1.320       .  A
N109        C113   1.344       .  A
N109       Cu117   2.063       .  S
N110        C111   1.340       .  A
N110       Cu116   2.051       .  S
C111        C112   1.379       .  A
C111        H114   1.083       .  S
C112        C113   1.383       .  A
C112        C465   1.471       .  S
C113        H115   1.082       .  S
Cu116       N119   2.051       .  S
Cu117       N127   2.064       .  S
Cu118       N120   2.077       .  S
Cu118       N126   2.078       .  S
N119        N120   1.321       .  A
N119        C123   1.339       .  A
N120        C121   1.348       .  A
C121        C122   1.386       .  A
C121        H124   1.082       .  S
C122        C123   1.378       .  A
C122        C565   1.475       .  S
C123        H125   1.082       .  S
N126        N127   1.324       .  A
N126        C130   1.344       .  A
N127        C128   1.343       .  A
C128        C129   1.379       .  A
C128        H131   1.082       .  S
C129        C130   1.382       .  A
C129        C494   1.472       .  S
C130        H132   1.082       .  S
C133        C134   1.403       .  A
C133        C138   1.402       .  A
C133        C474   1.472       .  S
C134        C135   1.401       .  A
C134        H139   1.084       .  S
C135        C136   1.399       .  A
C135        C434   1.477       .  S
C136        C137   1.401       .  A
C136        H140   1.085       .  S
C137        C138   1.402       .  A
C137        C445   1.478       .  S
C138        H141   1.084       .  S
C142        C143   1.402       .  A
C142        C147   1.400       .  A
C142        C405   1.470       .  S
C143        C144   1.402       .  A
C143        H148   1.084       .  S
C144        C145   1.403       .  A
C144        C385   1.480       .  S
C145        C146   1.399       .  A
C145        H149   1.084       .  S
C146        C147   1.398       .  A
C146        C425   1.471       .  S
C147        H150   1.084       .  S
N151        N152   1.323       .  A
N151        C155   1.347       .  A
N151       Cu159   2.074       .  S
N152        C153   1.343       .  A
N152       Cu158   2.069       .  S
C153        C154   1.379       .  A
C153        H156   1.082       .  S
C154        C155   1.382       .  A
C154        C534   1.471       .  S
C155        H157   1.082       .  S
Cu158       N161   2.068       .  S
Cu159       N169   2.074       .  S
Cu160       N162   2.069       .  S
Cu160       N168   2.070       .  S
N161        N162   1.320       .  A
N161        C165   1.342       .  A
N162        C163   1.346       .  A
C163        C164   1.386       .  A
C163        H166   1.081       .  S
C164        C165   1.385       .  A
C164        C394   1.484       .  S
C165        H167   1.081       .  S
N168        N169   1.323       .  A
N168        C172   1.343       .  A
N169        C170   1.345       .  A
C170        C171   1.382       .  A
C170        H173   1.083       .  S
C171        C172   1.380       .  A
C171        C365   1.473       .  S
C172        H174   1.083       .  S
N175        N176   1.323       .  A
N175        C179   1.345       .  A
N175       Cu183   2.077       .  S
N176        C177   1.346       .  A
N176       Cu182   2.077       .  S
C177        C178   1.382       .  A
C177        H180   1.082       .  S
C178        C179   1.382       .  A
C178        C345   1.475       .  S
C179        H181   1.082       .  S
Cu182       N185   2.076       .  S
Cu183       N193   2.077       .  S
Cu184       N186   2.066       .  S
Cu184       N192   2.066       .  S
N185        N186   1.322       .  A
N185        C189   1.345       .  A
N186        C187   1.344       .  A
C187        C188   1.382       .  A
C187        H190   1.081       .  S
C188        C189   1.385       .  A
C188        C454   1.479       .  S
C189        H191   1.081       .  S
N192        N193   1.323       .  A
N192        C196   1.343       .  A
N193        C194   1.346       .  A
C194        C195   1.382       .  A
C194        H197   1.082       .  S
C195        C196   1.379       .  A
C195        C374   1.471       .  S
C196        H198   1.082       .  S
C199        C200   1.400       .  A
C199        C204   1.403       .  A
C199        C594   1.473       .  S
C200        C201   1.401       .  A
C200        H205   1.084       .  S
C201        C202   1.405       .  A
C201        C325   1.478       .  S
C202        C203   1.401       .  A
C202        H206   1.084       .  S
C203        C204   1.402       .  A
C203        C305   1.480       .  S
C204        H207   1.084       .  S
C208        C209   1.403       .  A
C208        C213   1.402       .  A
C208        C354   1.477       .  S
C209        C210   1.406       .  A
C209        H214   1.084       .  S
C210        C211   1.406       .  A
C210        C285   1.491       .  S
C211        C212   1.404       .  A
C211        H215   1.084   1_556  S
C212        C213   1.400       .  A
C212        C314   1.479   1_556  S
C213        H216   1.084       .  S
N217        N218   1.319       .  A
N217        C221   1.345       .  A
N217       Cu225   2.068       .  S
N218        C219   1.339       .  A
N218       Cu224   2.056       .  S
C219        C220   1.384       .  A
C219        H222   1.082       .  S
C220        C221   1.388       .  A
C220        C665   1.483       .  S
C221        H223   1.082       .  S
Cu224       N227   2.059       .  S
Cu225       N235   2.070       .  S
Cu226       N228   2.068       .  S
Cu226       N234   2.071       .  S
N227        N228   1.319       .  A
N227        C231   1.341       .  A
N228        C229   1.345       .  A
C229        C230   1.388       .  A
C229        H232   1.083       .  S
C230        C231   1.384       .  A
C230        C294   1.487       .  S
C231        H233   1.080       .  S
N234        N235   1.324       .  A
N234        C238   1.343       .  A
N235        C236   1.344       .  A
C236        C237   1.380       .  A
C236        H239   1.082       .  S
C237        C238   1.380       .  A
C237        C265   1.470       .  S
C238        H240   1.082       .  S
N241        N242   1.322       .  A
N241        C245   1.344       .  A
N241       Cu249   2.063       .  S
N242        C243   1.343       .  A
N242       Cu248   2.068       .  S
C243        C244   1.380       .  A
C243        H246   1.083       .  S
C244        C245   1.379       .  A
C244        C414   1.468       .  S
C245        H247   1.082       .  S
Cu248       N251   2.068   1_556  S
Cu249       N259   2.064   1_556  S
Cu250       N252   2.070       .  S
Cu250       N258   2.070       .  S
N251        N252   1.321       .  A
N251        C255   1.343       .  A
N252        C253   1.345       .  A
C253        C254   1.385       .  A
C253        H256   1.080       .  S
C254        C255   1.384       .  A
C254        C334   1.481       .  S
C255        H257   1.080       .  S
N258        N259   1.322       .  A
N258        C262   1.344       .  A
N259        C260   1.343       .  A
C260        C261   1.381       .  A
C260        H263   1.082   1_554  S
C261        C262   1.382       .  A
C261        C274   1.474       .  S
C262        H264   1.082       .  S
C265        C266   1.410       .  A
C265        C270   1.409       .  A
C266        C267   1.404       .  A
C266       Br278   1.930       .  S
C267        C268   1.408       .  A
C267       Br282   1.930       .  S
C268        C269   1.408       .  A
C268        C271   1.477       .  S
C269        C270   1.404       .  A
C269       Br277   1.930       .  S
C270       Br281   1.930       .  S
C271        C272   1.407   1_655  A
C271        C276   1.407       .  A
C272        C273   1.405       .  A
C272       Br283   1.930       .  S
C273        C274   1.411       .  A
C273       Br279   1.930       .  S
C274        C275   1.412       .  A
C275        C276   1.404   1_455  A
C275       Br284   1.931   1_554  S
C276       Br280   1.931       .  S
C285        C286   1.415   1_556  A
C285        C290   1.417       .  A
C286        C287   1.408       .  A
C286       Br298   1.931       .  S
C287        C288   1.409       .  A
C287       Br302   1.931       .  S
C288        C289   1.406   1_554  A
C288        C291   1.485       .  S
C289        C290   1.406       .  A
C289       Br297   1.932       .  S
C290       Br301   1.930       .  S
C291        C292   1.408       .  A
C291        C296   1.407       .  A
C292        C293   1.406       .  A
C292       Br303   1.932       .  S
C293        C294   1.415       .  A
C293       Br299   1.933       .  S
C294        C295   1.419       .  A
C295        C296   1.408       .  A
C295       Br304   1.932       .  S
C296       Br300   1.932   1_554  S
C305        C306   1.411       .  A
C305        C310   1.410       .  A
C306        C307   1.410       .  A
C306       Br318   1.929       .  S
C307        C308   1.410       .  A
C307       Br322   1.928       .  S
C308        C309   1.410       .  A
C308        C311   1.485       .  S
C309        C310   1.405       .  A
C309       Br317   1.931       .  S
C310       Br321   1.930       .  S
C311        C312   1.410       .  A
C311        C316   1.409       .  A
C312        C313   1.409       .  A
C312       Br323   1.928       .  S
C313        C314   1.410       .  A
C313       Br319   1.929       .  S
C314        C315   1.409       .  A
C315        C316   1.406       .  A
C315       Br324   1.930   1_554  S
C316       Br320   1.930       .  S
C325        C326   1.412       .  A
C325        C330   1.411       .  A
C326        C327   1.406       .  A
C326       Br338   1.930       .  S
C327        C328   1.408       .  A
C327       Br342   1.930       .  S
C328        C329   1.408       .  A
C328        C331   1.480       .  S
C329        C330   1.405       .  A
C329       Br337   1.929       .  S
C330       Br341   1.931       .  S
C331        C332   1.407       .  A
C331        C336   1.406       .  A
C332        C333   1.404       .  A
C332       Br343   1.934       .  S
C333        C334   1.414       .  A
C333       Br339   1.933       .  S
C334        C335   1.414       .  A
C335        C336   1.408       .  A
C335       Br344   1.930       .  S
C336       Br340   1.929       .  S
C345        C346   1.409       .  A
C345        C350   1.408       .  A
C346        C347   1.406       .  A
C346       Br358   1.930       .  S
C347        C348   1.409       .  A
C347       Br362   1.930       .  S
C348        C349   1.410       .  A
C348        C351   1.483       .  S
C349        C350   1.408       .  A
C349       Br357   1.929       .  S
C350       Br361   1.928       .  S
C351        C352   1.408       .  A
C351        C356   1.411       .  A
C352        C353   1.403       .  A
C352       Br363   1.931       .  S
C353        C354   1.410       .  A
C353       Br359   1.930       .  S
C354        C355   1.408       .  A
C355        C356   1.410       .  A
C355       Br364   1.928       .  S
C356       Br360   1.927       .  S
C365        C366   1.409       .  A
C365        C370   1.411       .  A
C366        C367   1.406       .  A
C366       Br378   1.929       .  S
C367        C368   1.408       .  A
C367       Br382   1.929       .  S
C368        C369   1.408       .  A
C368        C371   1.480   1_565  S
C369        C370   1.406       .  A
C369       Br377   1.930   1_565  S
C370       Br381   1.931       .  S
C371        C372   1.409       .  A
C371        C376   1.409       .  A
C372        C373   1.406       .  A
C372       Br383   1.929       .  S
C373        C374   1.409       .  A
C373       Br379   1.929       .  S
C374        C375   1.408       .  A
C375        C376   1.406       .  A
C375       Br384   1.928       .  S
C376       Br380   1.929       .  S
C385        C386   1.412       .  A
C385        C390   1.411       .  A
C386        C387   1.406       .  A
C386       Br398   1.929       .  S
C387        C388   1.408       .  A
C387       Br402   1.930       .  S
C388        C389   1.409       .  A
C388        C391   1.482       .  S
C389        C390   1.405       .  A
C389       Br397   1.931       .  S
C390       Br401   1.931       .  S
C391        C392   1.407       .  A
C391        C396   1.408       .  A
C392        C393   1.409       .  A
C392       Br403   1.931       .  S
C393        C394   1.416       .  A
C393       Br399   1.930       .  S
C394        C395   1.414       .  A
C395        C396   1.404       .  A
C395       Br404   1.933       .  S
C396       Br400   1.934       .  S
C405        C406   1.407       .  A
C405        C410   1.408       .  A
C406        C407   1.406       .  A
C406       Br418   1.929       .  S
C407        C408   1.409       .  A
C407       Br422   1.928       .  S
C408        C409   1.408       .  A
C408        C411   1.477       .  S
C409        C410   1.403       .  A
C409       Br417   1.930       .  S
C410       Br421   1.929       .  S
C411        C412   1.408       .  A
C411        C416   1.408       .  A
C412        C413   1.405       .  A
C412       Br423   1.929       .  S
C413        C414   1.407       .  A
C413       Br419   1.929       .  S
C414        C415   1.408       .  A
C415        C416   1.405       .  A
C415       Br424   1.929       .  S
C416       Br420   1.930       .  S
C425        C426   1.408       .  A
C425        C430   1.407       .  A
C426        C427   1.405       .  A
C426       Br438   1.929       .  S
C427        C428   1.409       .  A
C427       Br442   1.929       .  S
C428        C429   1.409       .  A
C428        C431   1.479       .  S
C429        C430   1.405       .  A
C429       Br437   1.930       .  S
C430       Br441   1.930       .  S
C431        C432   1.408       .  A
C431        C436   1.407       .  A
C432        C433   1.406       .  A
C432       Br443   1.929       .  S
C433        C434   1.410       .  A
C433       Br439   1.930       .  S
C434        C435   1.411       .  A
C435        C436   1.404       .  A
C435       Br444   1.928       .  S
C436       Br440   1.931       .  S
C445        C446   1.411       .  A
C445        C450   1.411       .  A
C446        C447   1.408       .  A
C446       Br458   1.930       .  S
C447        C448   1.409       .  A
C447       Br462   1.928       .  S
C448        C449   1.407       .  A
C448        C451   1.481       .  S
C449        C450   1.403       .  A
C449       Br457   1.930       .  S
C450       Br461   1.933       .  S
C451        C452   1.408       .  A
C451        C456   1.407       .  A
C452        C453   1.406       .  A
C452       Br463   1.932       .  S
C453        C454   1.412       .  A
C453       Br459   1.931       .  S
C454        C455   1.413       .  A
C455        C456   1.408       .  A
C455       Br464   1.930       .  S
C456       Br460   1.929       .  S
C465        C466   1.411       .  A
C465        C470   1.410       .  A
C466        C467   1.404       .  A
C466       Br478   1.931       .  S
C467        C468   1.407       .  A
C467       Br482   1.931       .  S
C468        C469   1.407       .  A
C468        C471   1.476       .  S
C469        C470   1.404       .  A
C469       Br477   1.930       .  S
C470       Br481   1.931       .  S
C471        C472   1.407       .  A
C471        C476   1.408       .  A
C472        C473   1.404       .  A
C472       Br483   1.930       .  S
C473        C474   1.409       .  A
C473       Br479   1.927       .  S
C474        C475   1.408       .  A
C475        C476   1.404       .  A
C475       Br484   1.928       .  S
C476       Br480   1.930       .  S
C485        C486   1.409       .  A
C485        C490   1.407       .  A
C486        C487   1.403       .  A
C486       Br498   1.931       .  S
C487        C488   1.408       .  A
C487       Br502   1.931       .  S
C488        C489   1.409       .  A
C488        C491   1.477       .  S
C489        C490   1.406       .  A
C489       Br497   1.929       .  S
C490       Br501   1.928       .  S
C491        C492   1.408       .  A
C491        C496   1.408       .  A
C492        C493   1.404   1_655  A
C492       Br503   1.931       .  S
C493        C494   1.409       .  A
C493       Br499   1.930       .  S
C494        C495   1.411       .  A
C495        C496   1.405   1_455  A
C495       Br504   1.930       .  S
C496       Br500   1.930       .  S
C505        C506   1.413       .  A
C505        C510   1.416       .  A
C506        C507   1.406       .  A
C506       Br518   1.931       .  S
C507        C508   1.409       .  A
C507       Br522   1.932       .  S
C508        C509   1.406       .  A
C508        C511   1.482       .  S
C509        C510   1.408       .  A
C509       Br517   1.931       .  S
C510       Br521   1.931       .  S
C511        C512   1.410       .  A
C511        C516   1.410       .  A
C512        C513   1.404       .  A
C512       Br523   1.930       .  S
C513        C514   1.407       .  A
C513       Br519   1.930       .  S
C514        C515   1.410       .  A
C515        C516   1.407       .  A
C515       Br524   1.930       .  S
C516       Br520   1.929       .  S
C525        C526   1.408       .  A
C525        C530   1.409       .  A
C526        C527   1.405       .  A
C526       Br538   1.930       .  S
C527        C528   1.409       .  A
C527       Br542   1.930       .  S
C528        C529   1.409       .  A
C528        C531   1.481       .  S
C529        C530   1.407       .  A
C529       Br537   1.928       .  S
C530       Br541   1.929       .  S
C531        C532   1.409       .  A
C531        C536   1.410       .  A
C532        C533   1.405       .  A
C532       Br543   1.929       .  S
C533        C534   1.408       .  A
C533       Br539   1.929       .  S
C534        C535   1.408       .  A
C535        C536   1.407       .  A
C535       Br544   1.929       .  S
C536       Br540   1.929       .  S
C545        C546   1.413       .  A
C545        C550   1.411       .  A
C546        C547   1.407       .  A
C546       Br558   1.931       .  S
C547        C548   1.407       .  A
C547       Br562   1.929       .  S
C548        C549   1.410       .  A
C548        C551   1.484       .  S
C549        C550   1.408       .  A
C549       Br557   1.931       .  S
C550       Br561   1.930       .  S
C551        C552   1.409       .  A
C551        C556   1.409       .  A
C552        C553   1.408       .  A
C552       Br563   1.928       .  S
C553        C554   1.409       .  A
C553       Br559   1.928       .  S
C554        C555   1.409       .  A
C555        C556   1.406       .  A
C555       Br564   1.930       .  S
C556       Br560   1.929       .  S
C565        C566   1.410       .  A
C565        C570   1.412       .  A
C566        C567   1.407       .  A
C566       Br578   1.929       .  S
C567        C568   1.408       .  A
C567       Br582   1.929       .  S
C568        C569   1.408       .  A
C568        C571   1.479       .  S
C569        C570   1.403       .  A
C569       Br577   1.932       .  S
C570       Br581   1.932       .  S
C571        C572   1.409       .  A
C571        C576   1.408       .  A
C572        C573   1.404       .  A
C572       Br583   1.931       .  S
C573        C574   1.409       .  A
C573       Br579   1.931       .  S
C574        C575   1.410       .  A
C575        C576   1.406       .  A
C575       Br584   1.930       .  S
C576       Br580   1.929       .  S
C585        C586   1.409       .  A
C585        C590   1.407       .  A
C586        C587   1.408       .  A
C586       Br598   1.928       .  S
C587        C588   1.409       .  A
C587       Br602   1.928       .  S
C588        C589   1.410       .  A
C588        C591   1.482       .  S
C589        C590   1.404       .  A
C589       Br597   1.931       .  S
C590       Br601   1.929       .  S
C591        C592   1.410       .  A
C591        C596   1.411       .  A
C592        C593   1.408       .  A
C592       Br603   1.928       .  S
C593        C594   1.409       .  A
C593       Br599   1.929       .  S
C594        C595   1.407       .  A
C595        C596   1.403       .  A
C595       Br604   1.930       .  S
C596       Br600   1.931       .  S
C605        C606   1.407       .  A
C605        C610   1.408       .  A
C606        C607   1.405       .  A
C606       Br618   1.929       .  S
C607        C608   1.409       .  A
C607       Br622   1.929       .  S
C608        C609   1.409       .  A
C608        C611   1.480       .  S
C609        C610   1.406       .  A
C609       Br617   1.929       .  S
C610       Br621   1.930       .  S
C611        C612   1.408       .  A
C611        C616   1.407       .  A
C612        C613   1.406       .  A
C612       Br623   1.931       .  S
C613        C614   1.412       .  A
C613       Br619   1.931       .  S
C614        C615   1.411       .  A
C615        C616   1.406       .  A
C615       Br624   1.930       .  S
C616       Br620   1.929       .  S
C625        C626   1.416       .  A
C625        C630   1.415       .  A
C626        C627   1.406       .  A
C626       Br638   1.932       .  S
C627        C628   1.406       .  A
C627       Br642   1.931   1_545  S
C628        C629   1.407       .  A
C628        C631   1.481   1_545  S
C629        C630   1.406       .  A
C629       Br637   1.932   1_545  S
C630       Br641   1.932       .  S
C631        C632   1.408       .  A
C631        C636   1.409       .  A
C632        C633   1.407       .  A
C632       Br643   1.930       .  S
C633        C634   1.413       .  A
C633       Br639   1.931       .  S
C634        C635   1.413       .  A
C635        C636   1.405       .  A
C635       Br644   1.932       .  S
C636       Br640   1.933       .  S
C645        C646   1.414       .  A
C645        C650   1.410       .  A
C646        C647   1.409       .  A
C646       Br658   1.930       .  S
C647        C648   1.409       .  A
C647       Br662   1.929       .  S
C648        C649   1.411       .  A
C648        C651   1.484       .  S
C649        C650   1.402       .  A
C649       Br657   1.933       .  S
C650       Br661   1.933       .  S
C651        C652   1.408       .  A
C651        C656   1.408       .  A
C652        C653   1.408       .  A
C652       Br663   1.932       .  S
C653        C654   1.417       .  A
C653       Br659   1.930       .  S
C654        C655   1.414       .  A
C655        C656   1.406       .  A
C655       Br664   1.931       .  S
C656       Br660   1.931       .  S
C665        C666   1.416       .  A
C665        C670   1.416       .  A
C666        C667   1.406       .  A
C666       Br678   1.931       .  S
C667        C668   1.409       .  A
C667       Br682   1.933       .  S
C668        C669   1.408       .  A
C668        C671   1.481       .  S
C669        C670   1.403       .  A
C669       Br677   1.934       .  S
C670       Br681   1.934       .  S
C671        C672   1.408       .  A
C671        C676   1.410       .  A
C672        C673   1.402       .  A
C672       Br683   1.933       .  S
C673        C674   1.415       .  A
C673       Br679   1.934       .  S
C674        C675   1.414       .  A
C675        C676   1.406       .  A
C675       Br684   1.932       .  S
C676       Br680   1.932       .  S
C685        C686   1.410       .  A
C685        C690   1.410       .  A
C686        C687   1.402       .  A
C686       Br698   1.932       .  S
C687        C688   1.408       .  A
C687       Br702   1.931       .  S
C688        C689   1.409       .  A
C688        C691   1.480       .  S
C689        C690   1.409       .  A
C689       Br697   1.928       .  S
C690       Br701   1.928       .  S
C691        C692   1.408       .  A
C691        C696   1.408       .  A
C692        C693   1.405       .  A
C692       Br703   1.931       .  S
C693        C694   1.410       .  A
C693       Br699   1.931       .  S
C694        C695   1.409       .  A
C695        C696   1.407       .  A
C695       Br704   1.929       .  S
C696       Br700   1.928       .  S
C705        C706   1.413       .  A
C705        C710   1.412       .  A
C706        C707   1.406       .  A
C706       Br718   1.932       .  S
C707        C708   1.410       .  A
C707       Br722   1.931       .  S
C708        C709   1.411       .  A
C708        C711   1.488       .  S
C709        C710   1.409       .  A
C709       Br717   1.930       .  S
C710       Br721   1.930       .  S
C711        C712   1.410       .  A
C711        C716   1.410       .  A
C712        C713   1.410       .  A
C712       Br723   1.930       .  S
C713        C714   1.414       .  A
C713       Br719   1.930       .  S
C714        C715   1.412       .  A
C715        C716   1.406       .  A
C715       Br724   1.932       .  S
C716       Br720   1.932       .  S
C725        C726   1.412       .  A
C725        C730   1.409       .  A
C726        C727   1.408       .  A
C726       Br738   1.930       .  S
C727        C728   1.408       .  A
C727       Br742   1.929       .  S
C728        C729   1.409       .  A
C728        C731   1.484       .  S
C729        C730   1.406       .  A
C729       Br737   1.930       .  S
C730       Br741   1.929       .  S
C731        C732   1.409       .  A
C731        C736   1.410       .  A
C732        C733   1.407       .  A
C732       Br743   1.929       .  S
C733        C734   1.410       .  A
C733       Br739   1.930       .  S
C734        C735   1.409       .  A
C735        C736   1.407       .  A
C735       Br744   1.930       .  S
C736       Br740   1.930       .  S
