geometry optimzed in LAMMPS
_audit_creation_date              2020-11-30 
_audit_creation_method            'lammps2cif' 
_symmetry_space_group_name_H-M    'P1' 
_symmetry_Int_Tables_number       1 
_symmetry_cell_setting            triclinic 
loop_ 
_symmetry_equiv_pos_as_xyz 
  x,y,z 
_cell_length_a                    70.47238704 
_cell_length_b                    70.62898796840798 
_cell_length_c                    37.642187094668756 
_cell_angle_alpha                 90.36375749646223 
_cell_angle_beta                  90.11678317629126 
_cell_angle_gamma                 89.8375298242079 
loop_ 
_atom_site_label 
_atom_site_type_symbol 
_atom_site_fract_x 
_atom_site_fract_y 
_atom_site_fract_z 
_atom_site_charge 
C1          C  0.38696135  0.34601570  0.28867086     0.86400
C2          C  0.36564051  0.34965435  0.28134964    -0.53900
C3          C  0.35351415  0.34360298  0.30764066     0.09300
C4          C  0.36428099  0.33367159  0.33803071     0.20200
C5          C  0.39087203  0.35430665  0.32621837    -0.54600
C6          C  0.37867159  0.34825676  0.35159156     0.09400
C7          C  0.38825814  0.32456852  0.29494865    -0.54100
C8          C  0.37579122  0.31787565  0.31936117     0.10000
H9          H  0.36101840  0.35551997  0.25641342     0.14500
H10         H  0.35548594  0.32868455  0.36034413     0.00200
H11         H  0.40233361  0.36391168  0.33271867     0.14800
H12         H  0.39741526  0.31511105  0.27996769     0.14600
C13         C  0.34543526  0.38500980  0.66859231     0.86400
C14         C  0.35846546  0.36780327  0.67740750    -0.53900
C15         C  0.35468259  0.35176054  0.65789548     0.09300
C16         C  0.33870830  0.35468083  0.63034431     0.20200
C17         C  0.34864925  0.38745076  0.62843062    -0.54600
C18         C  0.34541892  0.37171890  0.60795799     0.09400
C19         C  0.32520716  0.37770285  0.67166844    -0.54100
C20         C  0.32145483  0.36209333  0.65167515     0.10000
H21         H  0.36995179  0.36844290  0.69657344     0.14500
H22         H  0.33579601  0.34158143  0.61500769     0.00200
H23         H  0.35401561  0.40037824  0.61712913     0.14800
H24         H  0.31442760  0.38472514  0.68767763     0.14600
C25         C  0.34274638  0.14617239  0.30094899     0.86400
C26         C  0.34799923  0.16669311  0.29262527    -0.53900
C27         C  0.33859279  0.17996554  0.31253167     0.09300
C28         C  0.32417708  0.17138134  0.33868470     0.20200
C29         C  0.34549753  0.14463837  0.34162730    -0.54600
C30         C  0.33622900  0.15798018  0.36191171     0.09400
C31         C  0.32101865  0.14533288  0.29651270    -0.54100
C32         C  0.31129489  0.15865881  0.31561838     0.10000
H33         H  0.35897863  0.17039090  0.27370562     0.14500
H34         H  0.31569191  0.18176506  0.35384806     0.00200
H35         H  0.35417143  0.13403934  0.35371952     0.14800
H36         H  0.31392885  0.13538957  0.27893527     0.14600
C37         C  0.39207318  0.18100012  0.67352467     0.86400
C38         C  0.37096287  0.17666003  0.68149489    -0.53900
C39         C  0.35788815  0.18564158  0.66011068     0.09300
C40         C  0.36767790  0.19813142  0.63197220     0.20200
C41         C  0.39398922  0.17564011  0.63411904    -0.54600
C42         C  0.38126108  0.18428052  0.61223478     0.09400
C43         C  0.39255711  0.20280310  0.67535519    -0.54100
C44         C  0.38009261  0.21188132  0.65370034     0.10000
H45         H  0.36628456  0.16742406  0.70217755     0.14500
H46         H  0.35842954  0.20635615  0.61427254     0.00200
H47         H  0.40347540  0.16451635  0.62481139     0.14800
H48         H  0.40170407  0.21050528  0.69364241     0.14600
C49         C  0.13777167  0.18894097  0.32066142     0.86400
C50         C  0.15550699  0.18476798  0.29709950    -0.53900
C51         C  0.17252312  0.18977286  0.31234563     0.09300
C52         C  0.17002540  0.19940693  0.34882064     0.20200
C53         C  0.14195930  0.17958387  0.35615124    -0.54600
C54         C  0.15876083  0.18485753  0.37089849     0.09400
C55         C  0.13932308  0.21038391  0.32794701    -0.54100
C56         C  0.15635238  0.21622559  0.34167337     0.10000
H57         H  0.15454204  0.17847625  0.27081613     0.14500
H58         H  0.18375909  0.20334316  0.36113926     0.00200
H59         H  0.13245523  0.16964441  0.36866270     0.14800
H60         H  0.12895332  0.22011957  0.32015588     0.14600
C61         C  0.19060633  0.13407102  0.67831739     0.86400
C62         C  0.18087192  0.15358376  0.68435434    -0.53900
C63         C  0.18786609  0.16810157  0.66425131     0.09300
C64         C  0.20424664  0.16167126  0.63981628     0.20200
C65         C  0.18925200  0.13066968  0.63815486    -0.54600
C66         C  0.19592152  0.14507056  0.61769650     0.09400
C67         C  0.21165843  0.13858061  0.68532824    -0.54100
C68         C  0.21894186  0.15279543  0.66513372     0.10000
H69         H  0.17020615  0.15636737  0.70429865     0.14500
H70         H  0.21035693  0.17320498  0.62368575     0.00200
H71         H  0.18262392  0.11809337  0.62676590     0.14800
H72         H  0.22010600  0.13117634  0.70479088     0.14600
C73         C  0.19093302  0.39101147  0.33172800     0.86400
C74         C  0.18128317  0.37167583  0.32360982    -0.53900
C75         C  0.18625197  0.35739580  0.34624385     0.09300
C76         C  0.19953502  0.36400740  0.37649594     0.20200
C77         C  0.18451811  0.39486822  0.37040181    -0.54600
C78         C  0.18904923  0.38086401  0.39406795     0.09400
C79         C  0.21209745  0.38660099  0.33438599    -0.54100
C80         C  0.21687263  0.37284848  0.35788596     0.10000
H81         H  0.17079595  0.36944432  0.30294247     0.14500
H82         H  0.20307318  0.35258187  0.39546058     0.00200
H83         H  0.17681821  0.40749038  0.37818541     0.14800
H84         H  0.22263370  0.39383975  0.31838095     0.14600
C85         C  0.14884759  0.33801677  0.70450292     0.86400
C86         C  0.17074996  0.34047993  0.70976301    -0.53900
C87         C  0.18185227  0.33359254  0.68206473     0.09300
C88         C  0.16967784  0.32363931  0.65356740     0.20200
C89         C  0.14480631  0.34622587  0.66749871    -0.54600
C90         C  0.15591500  0.33920558  0.64091603     0.09400
C91         C  0.14735882  0.31652295  0.70070312    -0.54100
C92         C  0.15787680  0.30873711  0.67445867     0.10000
H93         H  0.17709787  0.34554380  0.73409879     0.14500
H94         H  0.17763525  0.31792481  0.63080095     0.00200
H95         H  0.13451010  0.35744116  0.66316579     0.14800
H96         H  0.13960864  0.30782797  0.71945152     0.14600
C97         C  0.90007789  0.67556132  0.33540378     0.86400
C98         C  0.90431625  0.67066532  0.37411528    -0.53900
C99         C  0.89264503  0.67908009  0.39813052     0.09300
C100        C  0.87725975  0.69192998  0.38115647     0.20200
C101        C  0.87879100  0.67007139  0.33132181    -0.54600
C102        C  0.86650084  0.67863547  0.35516105     0.09400
C103        C  0.89936678  0.69733915  0.33341156    -0.54100
C104        C  0.88761662  0.70605588  0.35713271     0.10000
H105        H  0.91475566  0.66010036  0.38172536     0.14500
H106        H  0.86874824  0.69980832  0.40072053     0.00200
H107        H  0.87350432  0.66036640  0.31176374     0.14800
H108        H  0.90713817  0.70523371  0.31353523     0.14600
C109        C  0.84742847  0.64345199  0.70893622     0.86400
C110        C  0.85613739  0.64264346  0.67128742    -0.53900
C111        C  0.84866969  0.65527921  0.64715047     0.09300
C112        C  0.83320549  0.66805338  0.66452437     0.20200
C113        C  0.85098940  0.66433515  0.71938876    -0.54600
C114        C  0.84363964  0.67736945  0.69629049     0.09400
C115        C  0.82611783  0.64193677  0.70377712    -0.54100
C116        C  0.81849148  0.65485264  0.68169014     0.10000
H117        H  0.86821748  0.63363323  0.66543738     0.14500
H118        H  0.82619665  0.67794749  0.64614271     0.00200
H119        H  0.86006065  0.66865591  0.74105000     0.14800
H120        H  0.81739400  0.63220130  0.71890722     0.14600
C121        C  0.69628870  0.63695620  0.32398847     0.86400
C122        C  0.69168498  0.63457744  0.36356909    -0.53900
C123        C  0.69672583  0.64952133  0.38489054     0.09300
C124        C  0.70718971  0.66528574  0.36443126     0.20200
C125        C  0.68795873  0.65649993  0.31346593    -0.54600
C126        C  0.69339282  0.67123272  0.33484511     0.09400
C127        C  0.71787213  0.64075448  0.32338784    -0.54100
C128        C  0.72379241  0.65525334  0.34508101     0.10000
H129        H  0.68481829  0.62198125  0.37364715     0.14500
H130        H  0.71159743  0.67748609  0.38112604     0.00200
H131        H  0.67937945  0.65886435  0.29003252     0.14800
H132        H  0.72776808  0.63248828  0.30752439     0.14600
C133        C  0.64487579  0.69187708  0.69262346     0.86400
C134        C  0.64410225  0.68281638  0.65524872    -0.53900
C135        C  0.65852924  0.68809989  0.63338320     0.09300
C136        C  0.67317042  0.70132697  0.65146361     0.20200
C137        C  0.66473097  0.68550192  0.70607845    -0.54600
C138        C  0.67968330  0.69029662  0.68464609     0.09400
C139        C  0.64666181  0.71310815  0.68638155    -0.54100
C140        C  0.66173683  0.71843824  0.66629697     0.10000
H141        H  0.63336114  0.67272634  0.64698637     0.14500
H142        H  0.68502519  0.70510029  0.63358595     0.00200
H143        H  0.66669797  0.67728002  0.72966993     0.14800
H144        H  0.63732092  0.72333686  0.69915787     0.14600
C145        C  0.65684633  0.84118649  0.30081039     0.86400
C146        C  0.65199146  0.84651974  0.33935884    -0.53900
C147        C  0.66426205  0.84000674  0.36438616     0.09300
C148        C  0.68098194  0.82857422  0.34846943     0.20200
C149        C  0.67731465  0.84928827  0.29730586    -0.54600
C150        C  0.69015098  0.84215556  0.32144995     0.09400
C151        C  0.65972265  0.81970697  0.30046126    -0.54100
C152        C  0.67194927  0.81277547  0.32547514     0.10000
H153        H  0.64017257  0.85565030  0.34622924     0.14500
H154        H  0.69091425  0.82338007  0.36910639     0.00200
H155        H  0.68140970  0.86013947  0.27872393     0.14800
H156        H  0.65254438  0.81061879  0.28134137     0.14600
C157        C  0.68795299  0.89360410  0.67613819     0.86400
C158        C  0.68368729  0.89465275  0.63609424    -0.53900
C159        C  0.69189633  0.88065440  0.61601764     0.09300
C160        C  0.70486717  0.86757350  0.63792109     0.20200
C161        C  0.68316462  0.87278808  0.68671541    -0.54600
C162        C  0.69166734  0.85904843  0.66580490     0.09400
C163        C  0.70952297  0.89375290  0.67923747    -0.54100
C164        C  0.71849510  0.88054240  0.65945656     0.10000
H165        H  0.67435387  0.90533154  0.62494018     0.14500
H166        H  0.71180511  0.85678333  0.62118770     0.00200
H167        H  0.67481231  0.86896010  0.70957957     0.14800
H168        H  0.71722002  0.90300118  0.69740833     0.14600
C169        C  0.86142541  0.87913876  0.30976080     0.86400
C170        C  0.86407230  0.88577246  0.34897975    -0.53900
C171        C  0.85769328  0.87320164  0.37396240     0.09300
C172        C  0.84824262  0.85550253  0.35716670     0.20200
C173        C  0.87042929  0.85927874  0.30803496    -0.54600
C174        C  0.86353298  0.84679117  0.33245761     0.09400
C175        C  0.83993957  0.87569510  0.30783722    -0.54100
C176        C  0.83276302  0.86338875  0.33196943     0.10000
H177        H  0.86969364  0.89941955  0.35669474     0.14500
H178        H  0.84279779  0.84546029  0.37723790     0.00200
H179        H  0.88120576  0.85539293  0.28872475     0.14800
H180        H  0.83085210  0.88276010  0.28873326     0.14600
C181        C  0.89100188  0.84492234  0.69525851     0.86400
C182        C  0.89316876  0.84972656  0.65515274    -0.53900
C183        C  0.87868919  0.84342943  0.63376511     0.09300
C184        C  0.86414861  0.83148320  0.65414908     0.20200
C185        C  0.87065169  0.85151328  0.70507753    -0.54600
C186        C  0.85645908  0.84497838  0.68285398     0.09400
C187        C  0.88982956  0.82334415  0.69468766    -0.54100
C188        C  0.87547466  0.81618278  0.67497120     0.10000
H189        H  0.90503836  0.85715899  0.64381888     0.14500
H190        H  0.85327035  0.82598929  0.63589534     0.00200
H191        H  0.86796954  0.86017379  0.72836716     0.14800
H192        H  0.89898788  0.81427086  0.71045466     0.14600
In193      In  0.87128970  0.51580643  0.93995966     1.36900
C194        C  0.89681878  0.53671746  0.97484408     0.77500
O195        O  0.88465914  0.48972450  0.96359200    -0.61000
O196        O  0.88307863  0.49177285  0.90761416    -0.51900
C197        C  0.83533751  0.50979483  0.95883295     0.70100
O198        O  0.84740832  0.51714894  0.97939452    -0.46800
C199        C  0.86662262  0.53929459  0.88619743     0.74800
O200        O  0.88109975  0.53226032  0.98835359    -0.58600
O201        O  0.87352527  0.52295290  0.88245610    -0.48700
O202        O  0.89966981  0.52997516  0.94428716    -0.55000
C203        C  0.88888587  0.48248689  0.93388617     0.85000
O204        O  0.84196301  0.50428984  0.92948933    -0.56900
O205        O  0.86137119  0.54337408  0.91727929    -0.60200
In206      In  0.01578884  0.66001124  0.07722460     1.36900
C207        C  0.99372373  0.63175596  0.05552235     0.77500
O208        O  0.03964897  0.64592899  0.04693945    -0.61000
O209        O  0.04214316  0.64833714  0.10287958    -0.51900
C210        C  0.02069908  0.69462873  0.04959267     0.70100
O211        O  0.01378966  0.68099243  0.03207863    -0.46800
C212        C  0.99438359  0.66565713  0.13456264     0.74800
O213        O  0.99391432  0.64764056  0.04017419    -0.58600
O214        O  0.01215633  0.66345260  0.13642829    -0.48700
O215        O  0.00545856  0.63020277  0.08060287    -0.55000
C216        C  0.04897382  0.64169883  0.07443463     0.85000
O217        O  0.02551481  0.69039217  0.08082199    -0.56900
O218        O  0.98798551  0.66630182  0.10334233    -0.60200
In219      In  0.87465673  0.00611200  0.06952274     1.36900
C220        C  0.90295241  0.98675997  0.03953743     0.77500
O221        O  0.88599319  0.03243654  0.04436405    -0.61000
O222        O  0.88656146  0.03072766  0.10063587    -0.51900
C223        C  0.83896339  0.01214165  0.04715405     0.70100
O224        O  0.85243277  0.00837054  0.02618994    -0.46800
C225        C  0.87220556  0.98051746  0.12121350     0.74800
O226        O  0.90534163  0.99925744  0.06302464    -0.58600
O227        O  0.87487945  0.99792095  0.12753703    -0.48700
O228        O  0.88597765  0.98529144  0.02891128    -0.55000
C229        C  0.89126853  0.03988618  0.07329768     0.85000
O230        O  0.84386339  0.01347546  0.07930880    -0.56900
O231        O  0.86971799  0.97663000  0.08886160    -0.60200
In232      In  0.02031700  0.86305996  0.92891085     1.36900
C233        C  0.99831164  0.88867109  0.96062648     0.77500
O234        O  0.04444093  0.87725380  0.95809225    -0.61000
O235        O  0.04498257  0.87718345  0.90198853    -0.51900
C236        C  0.02651175  0.82760521  0.95174617     0.70100
O237        O  0.02007625  0.84059291  0.97136375    -0.46800
C238        C  0.99779550  0.85972414  0.87216381     0.74800
O239        O  0.00074306  0.87226448  0.97307278    -0.58600
O240        O  0.01559607  0.86100995  0.86946856    -0.48700
O241        O  0.00740781  0.89181001  0.93250861    -0.55000
C242        C  0.05250512  0.88301803  0.93038875     0.85000
O243        O  0.03053414  0.83279626  0.92070911    -0.56900
O244        O  0.99177285  0.85894467  0.90359084    -0.60200
In245      In  0.51920167  0.66417436  0.92520404     1.36900
C246        C  0.54472945  0.63947865  0.94980935     0.77500
O247        O  0.49850438  0.64449411  0.95142222    -0.61000
O248        O  0.49253989  0.65348212  0.89906010    -0.51900
C249        C  0.51261396  0.69801296  0.95514265     0.70100
O250        O  0.52612327  0.68734920  0.96399090    -0.46800
C251        C  0.53769540  0.67282979  0.86616462     0.74800
O252        O  0.53486599  0.64988202  0.97005463    -0.58600
O253        O  0.52258572  0.66327661  0.86578221    -0.48700
O254        O  0.54100169  0.64150692  0.91738730    -0.55000
C255        C  0.48772766  0.64319704  0.92476143     0.85000
O256        O  0.50189151  0.69098853  0.93173778    -0.56900
O257        O  0.54242193  0.67899106  0.89637686    -0.60200
In258      In  0.66579810  0.52079641  0.06977628     1.36900
C259        C  0.64077455  0.54485999  0.04147440     0.77500
O260        O  0.65234144  0.49710416  0.03859154    -0.61000
O261        O  0.64916738  0.49694876  0.09441536    -0.51900
C262        C  0.70047756  0.51370433  0.04419907     0.70100
O263        O  0.68946568  0.52586668  0.03106062    -0.46800
C264        C  0.67415917  0.53982366  0.12926813     0.74800
O265        O  0.65410236  0.53753536  0.02370115    -0.58600
O266        O  0.66956292  0.52255594  0.12938404    -0.48700
O267        O  0.64016787  0.53952906  0.07331791    -0.55000
C268        C  0.64512971  0.48915941  0.06516141     0.85000
O269        O  0.69377986  0.50508773  0.07054204    -0.56900
O270        O  0.67500413  0.54687752  0.09865251    -0.60200
In271      In  0.52782735  0.86752728  0.06487745     1.36900
C272        C  0.54879315  0.89080700  0.02649170     0.77500
O273        O  0.50124297  0.87905997  0.03947325    -0.61000
O274        O  0.50558054  0.88413983  0.09437454    -0.51900
C275        C  0.51974453  0.83220230  0.04546570     0.70100
O276        O  0.52692401  0.84418804  0.02494458    -0.46800
C277        C  0.55248753  0.86254794  0.11778169     0.74800
O278        O  0.54546597  0.87404771  0.01679555    -0.58600
O279        O  0.53581847  0.86845801  0.12304366    -0.48700
O280        O  0.54096960  0.89577030  0.05512438    -0.55000
C281        C  0.49545478  0.88716080  0.06735794     0.85000
O282        O  0.51554950  0.83855291  0.07587938    -0.56900
O283        O  0.55623405  0.85865492  0.08591347    -0.60200
In284      In  0.66865640  0.01203403  0.92868319     1.36900
C285        C  0.64149778  0.98970648  0.95313366     0.77500
O286        O  0.65605104  0.03775081  0.95600862    -0.61000
O287        O  0.65488341  0.03637308  0.89995026    -0.51900
C288        C  0.70377661  0.01688799  0.95465885     0.70100
O289        O  0.68987919  0.01236921  0.97390526    -0.46800
C290        C  0.67419056  0.98970990  0.87205358     0.74800
O291        O  0.65790686  0.98992270  0.96678234    -0.58600
O292        O  0.67314030  0.00753069  0.86992663    -0.48700
O293        O  0.63876194  0.00198637  0.92959159    -0.55000
C294        C  0.64996956  0.04515977  0.92773544     0.85000
O295        O  0.69943762  0.01994939  0.92271567    -0.56900
O296        O  0.67345294  0.98359046  0.90333818    -0.60200
In297      In  0.51164095  0.36904103  0.05281160     1.36900
C298        C  0.48769215  0.39135575  0.01813223     0.77500
O299        O  0.48375123  0.36437231  0.07892571    -0.61000
O300        O  0.50702366  0.37146044  0.11226319    -0.51900
C301        C  0.51853138  0.33384151  0.02837307     0.70100
O302        O  0.51780014  0.34813863  0.00865525    -0.46800
C303        C  0.54420156  0.38836940  0.05569469     0.74800
O304        O  0.48977373  0.37407893  0.01029009    -0.58600
O305        O  0.53817060  0.37872907  0.08137641    -0.48700
O306        O  0.49832849  0.39723330  0.04279056    -0.55000
C307        C  0.48946978  0.36818595  0.10981167     0.85000
O308        O  0.51656261  0.33767463  0.06087567    -0.56900
O309        O  0.53422667  0.38710365  0.02800622    -0.60200
In310      In  0.36708076  0.51056730  0.90438866     1.36900
C311        C  0.39102150  0.48505190  0.93047221     0.77500
O312        O  0.35399087  0.48687614  0.87318649    -0.61000
O313        O  0.36893015  0.50776864  0.84469237    -0.51900
C314        C  0.33300318  0.51809839  0.93112430     0.70100
O315        O  0.34429121  0.50626870  0.94444324    -0.46800
C316        C  0.38741667  0.54190440  0.91328003     0.74800
O317        O  0.37604024  0.48985159  0.94646259    -0.58600
O318        O  0.37967690  0.53773450  0.88403723    -0.48700
O319        O  0.39387790  0.49365075  0.90175347    -0.55000
C320        C  0.36001771  0.49232796  0.84350443     0.85000
O321        O  0.33928419  0.52661959  0.90427585    -0.56900
O322        O  0.38377360  0.53069792  0.93819965    -0.60200
In323      In  0.51431544  0.16315316  0.92250137     1.36900
C324        C  0.49221910  0.13686735  0.95047393     0.77500
O325        O  0.48590489  0.16964708  0.89869372    -0.61000
O326        O  0.50875663  0.16521269  0.86331060    -0.51900
C327        C  0.52225138  0.19853637  0.94235986     0.70100
O328        O  0.51333964  0.18720879  0.96203968    -0.46800
C329        C  0.54721519  0.14464585  0.92940619     0.74800
O330        O  0.49313574  0.15348811  0.96315973    -0.58600
O331        O  0.53961323  0.14786286  0.89957323    -0.48700
O332        O  0.50328582  0.13372850  0.92480848    -0.55000
C333        C  0.49115118  0.16824702  0.86686660     0.85000
O334        O  0.52751351  0.19153678  0.91310819    -0.56900
O335        O  0.53835179  0.15162983  0.95549479    -0.60200
In336      In  0.37424974  0.01883338  0.07508452     1.36900
C337        C  0.39993089  0.03989651  0.04220878     0.77500
O338        O  0.36954243  0.04639091  0.10325105    -0.61000
O339        O  0.37129841  0.02176949  0.13506868    -0.51900
C340        C  0.33860233  0.01443366  0.05261656     0.70100
O341        O  0.35011115  0.02569936  0.03847657    -0.46800
C342        C  0.39261381  0.98585092  0.06933683     0.74800
O343        O  0.38430046  0.03547002  0.02805795    -0.58600
O344        O  0.39178094  0.99529682  0.09780790    -0.48700
O345        O  0.40263707  0.03287827  0.07246502    -0.55000
C346        C  0.36985502  0.03958116  0.13404243     0.85000
O347        O  0.34529589  0.00513668  0.07829865    -0.56900
O348        O  0.38317378  0.99284453  0.04416168    -0.60200
In349      In  0.02165946  0.16186633  0.07479227     1.36900
C350        C  0.04639851  0.13753751  0.04707225     0.77500
O351        O  0.04804553  0.16646175  0.10570980    -0.61000
O352        O  0.02217947  0.16530998  0.13436229    -0.51900
C353        C  0.01694392  0.19690289  0.05038778     0.70100
O354        O  0.02054830  0.18297419  0.03043041    -0.46800
C355        C  0.98891026  0.14331959  0.07014517     0.74800
O356        O  0.04644520  0.15492547  0.03967423    -0.58600
O357        O  0.99675265  0.14722504  0.09939958    -0.48700
O358        O  0.03324002  0.13257272  0.06759423    -0.55000
C359        C  0.03995806  0.16744504  0.13543003     0.85000
O360        O  0.01477426  0.19265685  0.08251420    -0.56900
O361        O  0.99721365  0.15005421  0.04343669    -0.60200
In362      In  0.16919205  0.01953430  0.93413580     1.36900
C363        C  0.14335848  0.04361909  0.95879361     0.77500
O364        O  0.17720428  0.04600767  0.90573157    -0.61000
O365        O  0.17279882  0.02137048  0.87458787    -0.51900
C366        C  0.20393995  0.01362236  0.96091363     0.70100
O367        O  0.19142741  0.02318237  0.97683330    -0.46800
C368        C  0.14992642  0.98705060  0.93940500     0.74800
O369        O  0.15864311  0.04019752  0.97511412    -0.58600
O370        O  0.15455720  0.99423770  0.91012988    -0.48700
O371        O  0.14116418  0.03427371  0.93047564    -0.55000
C372        C  0.17637752  0.03887568  0.87503721     0.85000
O373        O  0.19843858  0.00656633  0.93183543    -0.56900
O374        O  0.15571284  0.99623224  0.96607788    -0.60200
In375      In  0.17278018  0.51070168  0.08052555     1.36900
C376        C  0.14691255  0.48640939  0.05684282     0.77500
O377        O  0.18283671  0.48477284  0.10908810    -0.61000
O378        O  0.17561871  0.50859845  0.14049316    -0.51900
C379        C  0.20587692  0.51910228  0.04969135     0.70100
O380        O  0.19384622  0.50799335  0.03632168    -0.46800
C381        C  0.15186282  0.54197978  0.07305275     0.74800
O382        O  0.16371427  0.48654224  0.04530119    -0.58600
O383        O  0.15770121  0.53627390  0.10291584    -0.48700
O384        O  0.14335753  0.49907491  0.07958260    -0.55000
C385        C  0.18073862  0.49145098  0.13986708     0.85000
O386        O  0.20094621  0.52610331  0.07920371    -0.56900
O387        O  0.15772475  0.53228262  0.04702511    -0.60200
In388      In  0.02516150  0.36752143  0.94658456     1.36900
C389        C  0.04753566  0.39306590  0.97676037     0.77500
O390        O  0.05414669  0.36022693  0.92776026    -0.61000
O391        O  0.03246058  0.36367432  0.88900907    -0.51900
C392        C  0.01864141  0.33255361  0.96927875     0.70100
O393        O  0.02163023  0.34628437  0.99007141    -0.46800
C394        C  0.99181901  0.38538609  0.94306267     0.74800
O395        O  0.04364029  0.37750887  0.99136160    -0.58600
O396        O  0.00145891  0.38138263  0.91581745    -0.48700
O397        O  0.03899026  0.39596583  0.94783757    -0.55000
C398        C  0.04983526  0.36053645  0.89529201     0.85000
O399        O  0.01806134  0.33701278  0.93696021    -0.56900
O400        O  0.99890452  0.37948508  0.97165640    -0.60200
C401        C  0.13261431  0.47228132  0.04556399     0.01200
C402        C  0.12064505  0.46392159  0.07116495     0.04000
C403        C  0.10688523  0.45063980  0.06063989    -0.12000
C404        C  0.10520557  0.44534260  0.02470123     0.23300
C405        C  0.11734517  0.45332283  0.99918377    -0.12600
C406        C  0.13088887  0.46692869  0.00946748     0.04700
C407        C  0.09022716  0.43182576  0.01359933     0.27200
C408        C  0.09378963  0.41220164  0.01387902    -0.13300
C409        C  0.07975552  0.39947481  0.00212125     0.05300
C410        C  0.06183923  0.40634529  0.99107232    -0.09200
C411        C  0.05817984  0.42600473  0.99170957     0.06100
C412        C  0.07236063  0.43869019  0.00285726    -0.13600
Br413      Br  0.11525156  0.44559922  0.95006408    -0.05700
Br414      Br  0.12354739  0.46971574  0.12111697    -0.00100
Br415      Br  0.08580205  0.37280430  0.99873337     0.00400
Br416      Br  0.06733308  0.46556907  0.00382471    -0.04000
Br417      Br  0.14618149  0.47893626  0.97357854     0.00500
Br418      Br  0.09022516  0.43958200  0.09541927    -0.03300
Br419      Br  0.11793516  0.40282923  0.03054454    -0.04200
Br420      Br  0.03361221  0.43573693  0.97843645    -0.00200
C421        C  0.01681751  0.31272270  0.98148681     0.01200
C422        C  0.02858054  0.30594845  0.00922829     0.04000
C423        C  0.02783718  0.28680298  0.01909887    -0.12000
C424        C  0.01531233  0.27433760  0.00169355     0.23300
C425        C  0.00369538  0.28090331  0.97393687    -0.12600
C426        C  0.00426927  0.30007995  0.96402729     0.04700
C427        C  0.01473989  0.25421686  0.01248198     0.27200
C428        C  0.02805397  0.24137399  0.99838332    -0.13300
C429        C  0.02919173  0.22286825  0.01171651     0.05300
C430        C  0.01599054  0.21663185  0.03735238    -0.09200
C431        C  0.00247159  0.22955361  0.05120037     0.06100
C432        C  0.00205800  0.24836613  0.03906378    -0.13600
Br433      Br  0.98749676  0.26333979  0.94881695    -0.05700
Br434      Br  0.04670557  0.32228801  0.03276395    -0.00100
Br435      Br  0.05050496  0.20716909  0.99811883     0.00400
Br436      Br  0.98447686  0.26640971  0.05940013    -0.04000
Br437      Br  0.98716853  0.30890835  0.92748466     0.00500
Br438      Br  0.04460739  0.27725274  0.05556960    -0.03300
Br439      Br  0.04509842  0.24946935  0.96139330    -0.04200
Br440      Br  0.98446012  0.22182354  0.08687460    -0.00200
C441        C  0.12928417  0.05766400  0.97144521     0.01200
C442        C  0.10967386  0.05352139  0.97002901     0.04000
C443        C  0.09637935  0.06686043  0.98249030    -0.12000
C444        C  0.10257211  0.08434450  0.99629661     0.23300
C445        C  0.12203834  0.08859380  0.99755029    -0.12600
C446        C  0.13537558  0.07545429  0.98454182     0.04700
C447        C  0.08854572  0.09832149  0.00942533     0.27200
C448        C  0.08108050  0.11201908  0.98623132    -0.13300
C449        C  0.06702656  0.12469280  0.99823156     0.05300
C450        C  0.06097396  0.12416422  0.03397092    -0.09200
C451        C  0.06927756  0.11102881  0.05761626     0.06100
C452        C  0.08276241  0.09791000  0.04513191    -0.13600
Br453      Br  0.13028577  0.11247078  0.01741213    -0.05700
Br454      Br  0.10074677  0.02948828  0.95191979    -0.00100
Br455      Br  0.05558806  0.14207143  0.96502922     0.00400
Br456      Br  0.09371907  0.07952337  0.07696765    -0.04000
Br457      Br  0.16174076  0.08270751  0.98201671     0.00500
Br458      Br  0.06959787  0.06117332  0.98129359    -0.03300
Br459      Br  0.09047581  0.11354070  0.93819767    -0.04200
Br460      Br  0.06344001  0.11177907  0.10775802    -0.00200
C461        C  0.22366777  0.01157804  0.97446002     0.01200
C462        C  0.23916131  0.01486464  0.95149534     0.04000
C463        C  0.25786253  0.01455739  0.96473041    -0.12000
C464        C  0.26137710  0.00996900  0.00047152     0.23300
C465        C  0.24604219  0.00601738  0.02321691    -0.12600
C466        C  0.22721644  0.00732718  0.01056729     0.04700
C467        C  0.28111534  0.01069707  0.01462389     0.27200
C468        C  0.29350950  0.99511278  0.01048224    -0.13300
C469        C  0.31227375  0.99612829  0.02352373     0.05300
C470        C  0.31873521  0.01279880  0.04037846    -0.09200
C471        C  0.30645092  0.02847120  0.04386727     0.06100
C472        C  0.28773889  0.02745662  0.03088901    -0.13600
Br473      Br  0.25098041  0.99907187  0.07188484    -0.05700
Br474      Br  0.23498170  0.02119695  0.90227307    -0.00100
Br475      Br  0.32948156  0.97515194  0.01654099     0.00400
Br476      Br  0.27135753  0.04934540  0.03377600    -0.04000
Br477      Br  0.20644568  0.00319957  0.04296107     0.00500
Br478      Br  0.27876339  0.02152416  0.93447945    -0.03300
Br479      Br  0.28497810  0.97279677  0.98541616    -0.04200
Br480      Br  0.31525333  0.05131532  0.06691205    -0.00200
C481        C  0.47888770  0.12225752  0.96350591     0.01200
C482        C  0.47498281  0.12046579  0.00014692     0.04000
C483        C  0.46191640  0.10679328  0.01185540    -0.12000
C484        C  0.45381571  0.09391430  0.98745767     0.23300
C485        C  0.45832664  0.09512997  0.95118375    -0.12600
C486        C  0.46995568  0.10985395  0.93897338     0.04700
C487        C  0.44000308  0.07952160  0.99972995     0.27200
C488        C  0.44642817  0.06226178  0.01399926    -0.13300
C489        C  0.43329477  0.04891127  0.02661923     0.05300
C490        C  0.41365281  0.05295857  0.02566844    -0.09200
C491        C  0.40724652  0.07015610  0.01080376     0.06100
C492        C  0.42038763  0.08320151  0.99724934    -0.13600
Br493      Br  0.44867066  0.07638290  0.91833827    -0.05700
Br494      Br  0.48808485  0.13595376  0.03474336    -0.00100
Br495      Br  0.44229027  0.02480237  0.04390047     0.00400
Br496      Br  0.41156028  0.10626112  0.97537526    -0.04000
Br497      Br  0.47186441  0.11391590  0.88835790     0.00500
Br498      Br  0.45488451  0.10574631  0.06131389    -0.03300
Br499      Br  0.47327815  0.05695457  0.01592200    -0.04200
Br500      Br  0.38061485  0.07675611  0.01145145    -0.00200
C501        C  0.31376494  0.52103314  0.94553460     0.01200
C502        C  0.30180196  0.50526454  0.94985770     0.04000
C503        C  0.28415621  0.50739136  0.96669227    -0.12000
C504        C  0.27798769  0.52542616  0.97808960     0.23300
C505        C  0.28953084  0.54138659  0.97220376    -0.12600
C506        C  0.30757413  0.53914931  0.95650732     0.04700
C507        C  0.25954191  0.52714123  0.99701041     0.27200
C508        C  0.24251344  0.52801874  0.97750744    -0.13300
C509        C  0.22495049  0.52582678  0.99479737     0.05300
C510        C  0.22427235  0.52322336  0.03204976    -0.09200
C511        C  0.24138669  0.52345878  0.05179768     0.06100
C512        C  0.25893604  0.52537001  0.03424336    -0.13600
Br513      Br  0.28062329  0.56618627  0.98588984    -0.05700
Br514      Br  0.30926900  0.48075405  0.93151321    -0.00100
Br515      Br  0.20191598  0.52628368  0.96688551     0.00400
Br516      Br  0.28237999  0.52455545  0.06082755    -0.04000
Br517      Br  0.32428179  0.56061072  0.95223137     0.00500
Br518      Br  0.26853921  0.48544317  0.97490132    -0.03300
Br519      Br  0.24345085  0.53170362  0.92678283    -0.04200
Br520      Br  0.24123322  0.51924336  0.10242825    -0.00200
C521        C  0.52555574  0.21861937  0.95220767     0.01200
C522        C  0.53297884  0.22342308  0.98591531     0.04000
C523        C  0.53432944  0.24257818  0.99636780    -0.12000
C524        C  0.52719249  0.25696737  0.97412046     0.23300
C525        C  0.52054664  0.25220999  0.93983291    -0.12600
C526        C  0.52037646  0.23316949  0.92845309     0.04700
C527        C  0.52522810  0.27674628  0.98788789     0.27200
C528        C  0.51099968  0.28100200  0.01301325    -0.13300
C529        C  0.50933403  0.29942929  0.02727103     0.05300
C530        C  0.52094969  0.31419730  0.01445194    -0.09200
C531        C  0.53435517  0.31013714  0.98747552     0.06100
C532        C  0.53703735  0.29135143  0.97544334    -0.13600
Br533      Br  0.51058301  0.27164637  0.90908876    -0.05700
Br534      Br  0.54182050  0.20381140  0.01742803    -0.00100
Br535      Br  0.49016128  0.30440642  0.06278556     0.00400
Br536      Br  0.55703131  0.28553872  0.94209192    -0.04000
Br537      Br  0.51212010  0.22716067  0.88072955     0.00500
Br538      Br  0.54588007  0.24921250  0.04125901    -0.03300
Br539      Br  0.49306628  0.26167566  0.02643797    -0.04200
Br540      Br  0.54922271  0.33012435  0.96670833    -0.00200
C541        C  0.40411579  0.47030537  0.94363207     0.01200
C542        C  0.41070484  0.47065034  0.97910224     0.04000
C543        C  0.42424207  0.45726325  0.99040739    -0.12000
C544        C  0.43100266  0.44337700  0.96650821     0.23300
C545        C  0.42396480  0.44263765  0.93151335    -0.12600
C546        C  0.41050809  0.45600818  0.92010686     0.04700
C547        C  0.44564992  0.42960901  0.97802634     0.27200
C548        C  0.46494076  0.43475947  0.97776934    -0.13300
C549        C  0.47882020  0.42190555  0.98955702     0.05300
C550        C  0.47347641  0.40374059  0.00115226    -0.09200
C551        C  0.45423821  0.39820741  0.99943197     0.06100
C552        C  0.44031832  0.41129985  0.98865495    -0.13600
Br553      Br  0.43298240  0.42334666  0.89909992    -0.05700
Br554      Br  0.40192215  0.48983753  0.01196676    -0.00100
Br555      Br  0.50528707  0.42888696  0.98819920     0.00400
Br556      Br  0.41381273  0.40448252  0.98953119    -0.04000
Br557      Br  0.40016030  0.45402034  0.87263010     0.00500
Br558      Br  0.43389423  0.45805690  0.03844113    -0.03300
Br559      Br  0.47226056  0.45952697  0.96144312    -0.04200
Br560      Br  0.44663758  0.37301759  0.01300959    -0.00200
C561        C  0.63707407  0.06198382  0.92734216     0.01200
C562        C  0.62095719  0.06216158  0.90469483     0.04000
C563        C  0.60772785  0.07716535  0.90662174    -0.12000
C564        C  0.61054758  0.09232095  0.93056066     0.23300
C565        C  0.62682987  0.09253369  0.95230004    -0.12600
C566        C  0.63991036  0.07734475  0.95111482     0.04700
C567        C  0.59577057  0.10743038  0.93391176     0.27200
C568        C  0.59581743  0.12313188  0.91099485    -0.13300
C569        C  0.58038086  0.13590144  0.91083852     0.05300
C570        C  0.56468044  0.13294718  0.93336758    -0.09200
C571        C  0.56536245  0.11802907  0.95828736     0.06100
C572        C  0.58094733  0.10544205  0.95868250    -0.13600
Br573      Br  0.63094892  0.11368351  0.98400734    -0.05700
Br574      Br  0.61584364  0.04126759  0.87264825    -0.00100
Br575      Br  0.58111446  0.15790831  0.88076616     0.00400
Br576      Br  0.58198530  0.08517557  0.99281056    -0.04000
Br577      Br  0.66181367  0.07794310  0.98193337     0.00500
Br578      Br  0.58516120  0.07668919  0.87737703    -0.03300
Br579      Br  0.61711217  0.12706183  0.87988255    -0.04200
Br580      Br  0.54447931  0.11380385  0.99041689    -0.00200
C581        C  0.40450914  0.96856516  0.06576319     0.01200
C582        C  0.41611104  0.96576573  0.03546788     0.04000
C583        C  0.42983022  0.95121106  0.03517653    -0.12000
C584        C  0.43195018  0.93934760  0.06484417     0.23300
C585        C  0.41949935  0.94119317  0.09383459    -0.12600
C586        C  0.40576801  0.95569697  0.09428112     0.04700
C587        C  0.44793663  0.92562771  0.06634819     0.27200
C588        C  0.44606013  0.90742607  0.05133803    -0.13300
C589        C  0.46153768  0.89474318  0.05163420     0.05300
C590        C  0.47882834  0.90005958  0.06790685    -0.09200
C591        C  0.48056380  0.91829408  0.08332123     0.06100
C592        C  0.46520291  0.93105341  0.08226619    -0.13600
Br593      Br  0.42165861  0.92401731  0.13329082    -0.05700
Br594      Br  0.41442232  0.98243620  0.99508455    -0.00100
Br595      Br  0.45877570  0.87000292  0.03028723     0.00400
Br596      Br  0.46788494  0.95627861  0.10175366    -0.04000
Br597      Br  0.38837545  0.95750708  0.13373841     0.00500
Br598      Br  0.44638489  0.94787247  0.99476704    -0.03300
Br599      Br  0.42217508  0.90004246  0.03038954    -0.04200
Br600      Br  0.50437272  0.92653386  0.10371150    -0.00200
C601        C  0.62714058  0.97517023  0.96124458     0.01200
C602        C  0.61841703  0.96515335  0.93291441     0.04000
C603        C  0.60552076  0.95053354  0.94002895    -0.12000
C604        C  0.60093535  0.94611166  0.97531316     0.23300
C605        C  0.60933503  0.95624875  0.00361514    -0.12600
C606        C  0.62255956  0.97065494  0.99663786     0.04700
C607        C  0.58710635  0.93093104  0.98290190     0.27200
C608        C  0.56760261  0.93521950  0.98473364    -0.13300
C609        C  0.55473214  0.92141275  0.99625410     0.05300
C610        C  0.56144196  0.90355832  0.00701596    -0.09200
C611        C  0.58073868  0.89878789  0.00260936     0.06100
C612        C  0.59352932  0.91243450  0.99004228    -0.13600
Br613      Br  0.60249407  0.95039338  0.05194673    -0.05700
Br614      Br  0.62463429  0.97061916  0.88402888    -0.00100
Br615      Br  0.52784421  0.92665546  0.99649299     0.00400
Br616      Br  0.61992772  0.90607063  0.98339122    -0.04000
Br617      Br  0.63366164  0.98469800  0.03553976     0.00500
Br618      Br  0.59431046  0.93623037  0.90151829    -0.03300
Br619      Br  0.55869399  0.96019345  0.97256779    -0.04200
Br620      Br  0.58993483  0.87409297  0.01619542    -0.00200
C621        C  0.63220599  0.47267834  0.06206676     0.01200
C622        C  0.61678392  0.47330449  0.03801742     0.04000
C623        C  0.60335076  0.45858214  0.03734755    -0.12000
C624        C  0.60565631  0.44270375  0.05944073     0.23300
C625        C  0.62151053  0.44161306  0.08223391    -0.12600
C626        C  0.63456810  0.45669981  0.08406117     0.04700
C627        C  0.59080932  0.42772135  0.05996821     0.27200
C628        C  0.57646344  0.42834735  0.08597213    -0.13300
C629        C  0.56182539  0.41479952  0.08568354     0.05300
C630        C  0.56089649  0.40106370  0.05826175    -0.09200
C631        C  0.57517225  0.40059434  0.03197788     0.06100
C632        C  0.59040939  0.41348766  0.03355783    -0.13600
Br633      Br  0.62512624  0.41942166  0.11110075    -0.05700
Br634      Br  0.61324203  0.49480498  0.00717280    -0.00100
Br635      Br  0.54227414  0.41613338  0.12150580     0.00400
Br636      Br  0.61083420  0.41172568  0.99966986    -0.04000
Br637      Br  0.65593481  0.45514877  0.11606337     0.00500
Br638      Br  0.58116760  0.46057652  0.00741703    -0.03300
Br639      Br  0.57644375  0.44842750  0.12101846    -0.04200
Br640      Br  0.57390414  0.38235465  0.99366799    -0.00200
C641        C  0.47140929  0.62993535  0.92314649     0.01200
C642        C  0.46856664  0.61855039  0.89251117     0.04000
C643        C  0.45396918  0.60498509  0.89172916    -0.12000
C644        C  0.44220433  0.60252681  0.92150134     0.23300
C645        C  0.44483015  0.61392078  0.95194579    -0.12600
C646        C  0.45935085  0.62761593  0.95281222     0.04700
C647        C  0.42769219  0.58728932  0.92122842     0.27200
C648        C  0.40892320  0.59115564  0.91038877    -0.13300
C649        C  0.39553165  0.57639745  0.90820416     0.05300
C650        C  0.40081617  0.55780011  0.91750107    -0.09200
C651        C  0.41942904  0.55409906  0.92959733     0.06100
C652        C  0.43290533  0.56873182  0.93077945    -0.13600
Br653      Br  0.42868267  0.61037057  0.99270231    -0.05700
Br654      Br  0.48556965  0.62013000  0.85242498    -0.00100
Br655      Br  0.36977864  0.58179285  0.89398904     0.00400
Br656      Br  0.45878755  0.56324465  0.94415735    -0.04000
Br657      Br  0.46231034  0.64335514  0.99457134     0.00500
Br658      Br  0.45041182  0.58913012  0.85026755    -0.03300
Br659      Br  0.40176466  0.61666468  0.89811878    -0.04200
Br660      Br  0.42684628  0.52878437  0.94324168    -0.00200
C661        C  0.51025121  0.71739038  0.97014173     0.01200
C662        C  0.50522160  0.73272827  0.94790360     0.04000
C663        C  0.50550782  0.75139763  0.96130544    -0.12000
C664        C  0.51083613  0.75491050  0.99677053     0.23300
C665        C  0.51507140  0.73967122  0.01939183    -0.12600
C666        C  0.51464257  0.72096271  0.00627092     0.04700
C667        C  0.51296498  0.77469385  0.00976097     0.27200
C668        C  0.53061066  0.78382513  0.00658173    -0.13300
C669        C  0.53287110  0.80245048  0.01922674     0.05300
C670        C  0.51737259  0.81219962  0.03463025    -0.09200
C671        C  0.49971590  0.80302027  0.03796659     0.06100
C672        C  0.49746149  0.78438361  0.02503202    -0.13600
Br673      Br  0.52196931  0.74459031  0.06823402    -0.05700
Br674      Br  0.49925387  0.72873132  0.89832813    -0.00100
Br675      Br  0.55758887  0.81420301  0.01692346     0.00400
Br676      Br  0.47294997  0.77235301  0.02641333    -0.04000
Br677      Br  0.51959230  0.70030075  0.03844468     0.00500
Br678      Br  0.49934376  0.77244415  0.93084541    -0.03300
Br679      Br  0.55152901  0.77095623  0.98370567    -0.04200
Br680      Br  0.47840518  0.81614294  0.05883374    -0.00200
C681        C  0.55955172  0.62609749  0.96268310     0.01200
C682        C  0.57033049  0.63040629  0.99350438     0.04000
C683        C  0.58380084  0.61733882  0.00638398    -0.12000
C684        C  0.58725517  0.60031700  0.98781679     0.23300
C685        C  0.57729212  0.59637455  0.95625246    -0.12600
C686        C  0.56336978  0.60904430  0.94381801     0.04700
C687        C  0.60109129  0.58626050  0.00171230     0.27200
C688        C  0.62035658  0.58726477  0.99208218    -0.13300
C689        C  0.63333084  0.57355321  0.00440354     0.05300
C690        C  0.62706544  0.55876714  0.02670143    -0.09200
C691        C  0.60764987  0.55776429  0.03600963     0.06100
C692        C  0.59474887  0.57142687  0.02342729    -0.13600
Br693      Br  0.58271075  0.57328394  0.93035358    -0.05700
Br694      Br  0.56797928  0.65472682  0.01697539    -0.00100
Br695      Br  0.65978203  0.57581012  0.99183279     0.00400
Br696      Br  0.56817535  0.56974415  0.03536821    -0.04000
Br697      Br  0.54933547  0.60216305  0.90151664     0.00500
Br698      Br  0.59753851  0.62259803  0.04971953    -0.03300
Br699      Br  0.62883835  0.60752746  0.96186887    -0.04200
Br700      Br  0.59826098  0.53722315  0.06465314    -0.00200
C701        C  0.06863672  0.89651143  0.93116213     0.01200
C702        C  0.06824598  0.91268894  0.90915737     0.04000
C703        C  0.08291670  0.92616263  0.91121399    -0.12000
C704        C  0.09794930  0.92377724  0.93552379     0.23300
C705        C  0.09847112  0.90763411  0.95728754    -0.12600
C706        C  0.08384187  0.89407509  0.95527098     0.04700
C707        C  0.11259118  0.93882878  0.93937134     0.27200
C708        C  0.12860899  0.93896040  0.91708175    -0.13300
C709        C  0.14121711  0.95441942  0.91791793     0.05300
C710        C  0.13816473  0.96964527  0.94184096    -0.09200
C711        C  0.12307729  0.96854213  0.96654050     0.06100
C712        C  0.11011455  0.95340000  0.96467685    -0.13600
Br713      Br  0.11924461  0.90432414  0.99011574    -0.05700
Br714      Br  0.04684082  0.91751220  0.87825511    -0.00100
Br715      Br  0.16320251  0.95415301  0.88736866     0.00400
Br716      Br  0.08854384  0.95275229  0.99620235    -0.04000
Br717      Br  0.08493106  0.87205829  0.98529457     0.00500
Br718      Br  0.08220853  0.94830780  0.88140257    -0.03300
Br719      Br  0.13325673  0.91779808  0.88563705    -0.04200
Br720      Br  0.11951835  0.98782496  0.00253306    -0.00200
C721        C  0.97216600  0.13072335  0.06740863     0.01200
C722        C  0.95723069  0.13218976  0.09228713     0.04000
C723        C  0.94284536  0.11839020  0.09293497    -0.12000
C724        C  0.94276377  0.10358249  0.06770220     0.23300
C725        C  0.95700335  0.10271500  0.04153362    -0.12600
C726        C  0.97193022  0.11592183  0.04187992     0.04700
C727        C  0.92877768  0.08794931  0.07066113     0.27200
C728        C  0.93245749  0.07287336  0.09400936    -0.13300
C729        C  0.91985981  0.05747219  0.09585921     0.05300
C730        C  0.90327957  0.05714528  0.07454106    -0.09200
C731        C  0.89943416  0.07254049  0.05176368     0.06100
C732        C  0.91219336  0.08783511  0.04973733    -0.13600
Br733      Br  0.95652328  0.08275382  0.00626003    -0.05700
Br734      Br  0.95614796  0.15322518  0.12521540    -0.00100
Br735      Br  0.92653494  0.03618629  0.12540224     0.00400
Br736      Br  0.90725998  0.10851286  0.01773807    -0.04000
Br737      Br  0.99300447  0.11217589  0.00973271     0.00500
Br738      Br  0.92370874  0.11908849  0.12951933    -0.03300
Br739      Br  0.95528789  0.07311890  0.12256472    -0.04200
Br740      Br  0.87651549  0.07299642  0.02368209    -0.00200
C741        C  0.72366498  0.01766868  0.96804295     0.01200
C742        C  0.72799459  0.02695242  0.00038441     0.04000
C743        C  0.74659756  0.02627975  0.01437391    -0.12000
C744        C  0.76123315  0.01701516  0.99545107     0.23300
C745        C  0.75701523  0.00807074  0.96279819    -0.12600
C746        C  0.73833363  0.00826360  0.94925807     0.04700
C747        C  0.78101465  0.01640404  0.00993612     0.27200
C748        C  0.79493887  0.02897623  0.99721243    -0.13300
C749        C  0.81382642  0.02777837  0.00965120     0.05300
C750        C  0.81892794  0.01411671  0.03517262    -0.09200
C751        C  0.80489478  0.00181099  0.04845145     0.06100
C752        C  0.78608714  0.00281609  0.03559251    -0.13600
Br753      Br  0.77683640  0.99489156  0.93726703    -0.05700
Br754      Br  0.70872246  0.04156655  0.02458021    -0.00100
Br755      Br  0.83258587  0.04530920  0.99261499     0.00400
Br756      Br  0.76731454  0.98510671  0.05209199    -0.04000
Br757      Br  0.73283613  0.99454257  0.90593286     0.00500
Br758      Br  0.75197310  0.03759684  0.06003273    -0.03300
Br759      Br  0.78808991  0.04770999  0.96234579    -0.04200
Br760      Br  0.81162766  0.98284349  0.08299541    -0.00200
C761        C  0.98545817  0.90304494  0.97652652     0.01200
C762        C  0.96764175  0.89774703  0.99062134     0.04000
C763        C  0.95470219  0.91176996  0.00190397    -0.12000
C764        C  0.95933554  0.93105498  0.99871008     0.23300
C765        C  0.97726065  0.93636796  0.98593043    -0.12600
C766        C  0.99038729  0.92244813  0.97525433     0.04700
C767        C  0.94533916  0.94584985  0.00868283     0.27200
C768        C  0.93218387  0.95244035  0.98342088    -0.13300
C769        C  0.91880282  0.96643349  0.99286585     0.05300
C770        C  0.91849371  0.97388403  0.02784459    -0.09200
C771        C  0.93241198  0.96776324  0.05268286     0.06100
C772        C  0.94558622  0.95364521  0.04309301    -0.13600
Br773      Br  0.98364617  0.96287885  0.98281870    -0.05700
Br774      Br  0.96015052  0.87148896  0.99275767    -0.00100
Br775      Br  0.90170804  0.97595601  0.95700322     0.00400
Br776      Br  0.96391420  0.94453100  0.07726161    -0.04000
Br777      Br  0.01540365  0.93025156  0.96045637     0.00500
Br778      Br  0.93039879  0.90472265  0.02130544    -0.03300
Br779      Br  0.93265400  0.94213373  0.93579020    -0.04200
Br780      Br  0.93342223  0.97768717  0.10072479    -0.00200
C781        C  0.13844175  0.55811743  0.06907818     0.01200
C782        C  0.14103961  0.57493128  0.08899329     0.04000
C783        C  0.12722835  0.58940179  0.08806330    -0.12000
C784        C  0.11088630  0.58736841  0.06677072     0.23300
C785        C  0.10870183  0.57104612  0.04545800    -0.12600
C786        C  0.12228104  0.55635486  0.04685865     0.04700
C787        C  0.09534881  0.60170245  0.06892598     0.27200
C788        C  0.08104633  0.59972035  0.09470507    -0.13300
C789        C  0.06623837  0.61309978  0.09712426     0.05300
C790        C  0.06559917  0.62868162  0.07368120    -0.09200
C791        C  0.08010339  0.63077074  0.04812593     0.06100
C792        C  0.09486426  0.61725484  0.04566434    -0.13600
Br793      Br  0.08668736  0.56866680  0.01516776    -0.05700
Br794      Br  0.16376426  0.57848028  0.11691195    -0.00100
Br795      Br  0.04627210  0.60917177  0.13141398     0.00400
Br796      Br  0.11441108  0.61980088  0.01025671    -0.04000
Br797      Br  0.11763396  0.53324067  0.02049863     0.00500
Br798      Br  0.13036908  0.61193622  0.11665310    -0.03300
Br799      Br  0.08160221  0.57827459  0.12627989    -0.04200
Br800      Br  0.08033321  0.65259917  0.01759433    -0.00200
C801        C  0.02274885  0.71408437  0.03501575     0.01200
C802        C  0.01612868  0.72993083  0.05459231     0.04000
C803        C  0.01805491  0.74838394  0.04089044    -0.12000
C804        C  0.02642736  0.75120322  0.00735655     0.23300
C805        C  0.03304509  0.73544103  0.98778787    -0.12600
C806        C  0.03122138  0.71696827  0.00149128     0.04700
C807        C  0.02718545  0.77059197  0.99172213     0.27200
C808        C  0.01212936  0.77699419  0.97012735    -0.13300
C809        C  0.01242435  0.79540426  0.95595115     0.05300
C810        C  0.02764672  0.80766484  0.96354350    -0.09200
C811        C  0.04305510  0.80111424  0.98405843     0.06100
C812        C  0.04282258  0.78261054  0.99817381    -0.13600
Br813      Br  0.04449538  0.73930419  0.94192514    -0.05700
Br814      Br  0.00315154  0.72641550  0.09914627    -0.00100
Br815      Br  0.99183103  0.80403292  0.92623850     0.00400
Br816      Br  0.06380174  0.77367224  0.02648183    -0.04000
Br817      Br  0.04095394  0.69572015  0.97463487     0.00500
Br818      Br  0.00886116  0.76989743  0.06770275    -0.03300
Br819      Br  0.99093112  0.76054454  0.96038436    -0.04200
Br820      Br  0.06457226  0.81738988  0.99202480    -0.00200
C821        C  0.97410093  0.39676237  0.94185141     0.01200
C822        C  0.97118090  0.41155541  0.96682802     0.04000
C823        C  0.95530467  0.42352262  0.96381942    -0.12000
C824        C  0.94195503  0.42055211  0.93653062     0.23300
C825        C  0.94413632  0.40515664  0.91293433    -0.12600
C826        C  0.96032562  0.39344910  0.91516915     0.04700
C827        C  0.92651304  0.43460460  0.93146805     0.27200
C828        C  0.91039938  0.43438027  0.95351356    -0.13300
C829        C  0.89738332  0.44952819  0.95272737     0.05300
C830        C  0.90059029  0.46511499  0.93025674    -0.09200
C831        C  0.91609230  0.46465651  0.90636781     0.06100
C832        C  0.92906115  0.44947536  0.90721316    -0.13600
Br833      Br  0.92485159  0.40026136  0.87765162    -0.05700
Br834      Br  0.98925720  0.41648424  0.00431079    -0.00100
Br835      Br  0.87490638  0.44863607  0.98183761     0.00400
Br836      Br  0.95124812  0.44968167  0.87708305    -0.04000
Br837      Br  0.96320691  0.37260842  0.88218004     0.00500
Br838      Br  0.95206819  0.44455076  0.99645144    -0.03300
Br839      Br  0.90687317  0.41379850  0.98626388    -0.04200
Br840      Br  0.92073314  0.48534398  0.87418152    -0.00200
C841        C  0.81491428  0.50874994  0.96772489     0.01200
C842        C  0.80524162  0.52532663  0.97864413     0.04000
C843        C  0.78584837  0.52459204  0.98717232    -0.12000
C844        C  0.77621181  0.50713408  0.98691133     0.23300
C845        C  0.78574739  0.49058827  0.97556119    -0.12600
C846        C  0.80489880  0.49151890  0.96482759     0.04700
C847        C  0.75663203  0.50628350  0.00154982     0.27200
C848        C  0.75399930  0.50816480  0.03853635    -0.13300
C849        C  0.73566525  0.51068924  0.05254881     0.05300
C850        C  0.71970664  0.51006474  0.02988465    -0.09200
C851        C  0.72226477  0.50684779  0.99313848     0.06100
C852        C  0.74070046  0.50553235  0.97885043    -0.13600
Br853      Br  0.77286234  0.46654669  0.97656939    -0.05700
Br854      Br  0.81830238  0.54931667  0.98109455    -0.00100
Br855      Br  0.73274618  0.51698058  0.10220271     0.00400
Br856      Br  0.74412996  0.50375655  0.92811037    -0.04000
Br857      Br  0.81755437  0.46902115  0.94758238     0.00500
Br858      Br  0.77238583  0.54752550  0.99990629    -0.03300
Br859      Br  0.77576966  0.50812048  0.06982667    -0.04200
Br860      Br  0.70048565  0.50378190  0.96244921    -0.00200
C861        C  0.91062981  0.54938660  0.99244314     0.01200
C862        C  0.92938353  0.54314372  0.99854986     0.04000
C863        C  0.94305992  0.55581829  0.01190700    -0.12000
C864        C  0.93826336  0.57494794  0.01762748     0.23300
C865        C  0.91946059  0.58114306  0.01230010    -0.12600
C866        C  0.90556996  0.56830569  0.00030539     0.04700
C867        C  0.95317790  0.58876466  0.02759847     0.27200
C868        C  0.95648299  0.59320974  0.06353712    -0.13300
C869        C  0.97018616  0.60683941  0.07281619     0.05300
C870        C  0.98035003  0.61641875  0.04594355    -0.09200
C871        C  0.97732042  0.61152844  0.00997492     0.06100
C872        C  0.96391822  0.59757690  0.00090373    -0.13600
Br873      Br  0.91303933  0.60743200  0.02017322    -0.05700
Br874      Br  0.93637767  0.51723019  0.98859323    -0.00100
Br875      Br  0.97417545  0.61273619  0.12245644     0.00400
Br876      Br  0.96031467  0.59027774  0.95185793    -0.04000
Br877      Br  0.87994047  0.57703328  0.99238927     0.00500
Br878      Br  0.96849702  0.54720624  0.02205195    -0.03300
Br879      Br  0.94199245  0.58062177  0.09987030    -0.04200
Br880      Br  0.99209685  0.62323178  0.97303930    -0.00200
C881        C  0.90660985  0.85166184  0.72181841     0.01200
C882        C  0.92078401  0.86510825  0.71291346     0.04000
C883        C  0.93787268  0.86607833  0.73246794    -0.12000
C884        C  0.94004432  0.85570428  0.76395347     0.23300
C885        C  0.92496431  0.84453164  0.77600985    -0.12600
C886        C  0.90816506  0.84304295  0.75591782     0.04700
C887        C  0.95687877  0.85844606  0.78739778     0.27200
C888        C  0.97143393  0.84470520  0.78849857    -0.13300
C889        C  0.98528482  0.84536685  0.81560072     0.05300
C890        C  0.98474551  0.85992209  0.84135419    -0.09200
C891        C  0.97098470  0.87440412  0.83869895     0.06100
C892        C  0.95704529  0.87362101  0.81191884    -0.13600
Br893      Br  0.92755237  0.83097662  0.82031938    -0.05700
Br894      Br  0.91514670  0.88634759  0.68290054    -0.00100
Br895      Br  0.00408683  0.82558612  0.81913304     0.00400
Br896      Br  0.93761857  0.89292192  0.80973601    -0.04000
Br897      Br  0.88709784  0.83035754  0.77778880     0.00500
Br898      Br  0.95840591  0.88178351  0.71623506    -0.03300
Br899      Br  0.97184768  0.82463014  0.75359653    -0.04200
Br900      Br  0.97127603  0.89547528  0.87166203    -0.00200
C901        C  0.86019851  0.87557453  0.41367483     0.01200
C902        C  0.87853966  0.87746570  0.42915780     0.04000
C903        C  0.88133079  0.87390535  0.46575050    -0.12000
C904        C  0.86580896  0.86964111  0.48775174     0.23300
C905        C  0.84733000  0.87052944  0.47353535    -0.12600
C906        C  0.84453959  0.87313484  0.43671806     0.04700
C907        C  0.86899197  0.86306421  0.52509306     0.27200
C908        C  0.86810103  0.84361913  0.53303802    -0.13300
C909        C  0.87133287  0.83715433  0.56801558     0.05300
C910        C  0.87556255  0.85009772  0.59593352    -0.09200
C911        C  0.87561623  0.86975058  0.58776231     0.06100
C912        C  0.87290474  0.87607140  0.55254600    -0.13600
Br913      Br  0.82583243  0.86784392  0.50476653    -0.05700
Br914      Br  0.90060890  0.88214193  0.40047149    -0.00100
Br915      Br  0.86982872  0.81037438  0.57630082     0.00400
Br916      Br  0.87443075  0.90272273  0.54159961    -0.04000
Br917      Br  0.81902280  0.87372100  0.41854543     0.00500
Br918      Br  0.90666632  0.87332313  0.48550257    -0.03300
Br919      Br  0.86271758  0.82569496  0.49536998    -0.04200
Br920      Br  0.87705746  0.88864724  0.62462997    -0.00200
C921        C  0.87250454  0.96569197  0.14911022     0.01200
C922        C  0.86278109  0.96848607  0.18152930     0.04000
C923        C  0.86289853  0.95420812  0.20760264    -0.12000
C924        C  0.87345493  0.93744353  0.20223762     0.23300
C925        C  0.88373219  0.93493079  0.17050780    -0.12600
C926        C  0.88258424  0.94854071  0.14341753     0.04700
C927        C  0.87233015  0.92166480  0.22828434     0.27200
C928        C  0.88350143  0.92170175  0.25930012    -0.13300
C929        C  0.88184429  0.90688896  0.28421748     0.05300
C930        C  0.86805671  0.89242562  0.27935553    -0.09200
C931        C  0.85981842  0.89081021  0.24477728     0.06100
C932        C  0.86113775  0.90575686  0.22038516    -0.13600
Br933      Br  0.89921539  0.91252754  0.16413915    -0.05700
Br934      Br  0.84784282  0.99109881  0.18914398    -0.00100
Br935      Br  0.90176840  0.90435447  0.31884468     0.00400
Br936      Br  0.84752261  0.90445655  0.17571410    -0.04000
Br937      Br  0.89457068  0.94299608  0.09842739     0.00500
Br938      Br  0.84788039  0.95715302  0.25007805    -0.03300
Br939      Br  0.90176484  0.94169188  0.26649611    -0.04200
Br940      Br  0.84801912  0.86772257  0.22825353    -0.00200
C941        C  0.73896013  0.87726912  0.66517723     0.01200
C942        C  0.75240311  0.88610087  0.64328253     0.04000
C943        C  0.77166124  0.88132620  0.64647793    -0.12000
C944        C  0.77765476  0.86953640  0.67435385     0.23300
C945        C  0.76454985  0.86317994  0.69974129    -0.12600
C946        C  0.74518625  0.86720585  0.69540574     0.04700
C947        C  0.79766382  0.86354506  0.67694418     0.27200
C948        C  0.80272583  0.84536079  0.66561846    -0.13300
C949        C  0.82113845  0.83852629  0.67175852     0.05300
C950        C  0.83582943  0.85106374  0.68373696    -0.09200
C951        C  0.83050845  0.87003953  0.69285125     0.06100
C952        C  0.81130189  0.87560400  0.69185580    -0.13600
Br953      Br  0.77323969  0.84880958  0.74014934    -0.05700
Br954      Br  0.74502179  0.90701942  0.61363671    -0.00100
Br955      Br  0.82396836  0.81143750  0.66642827     0.00400
Br956      Br  0.80333141  0.89990032  0.71063766    -0.04000
Br957      Br  0.72743076  0.85935869  0.73154457     0.00500
Br958      Br  0.78975000  0.89064325  0.61246988    -0.03300
Br959      Br  0.78407202  0.82984394  0.64123919    -0.04200
Br960      Br  0.84862521  0.88978174  0.70331848    -0.00200
C961        C  0.67962031  0.91043625  0.69749246     0.01200
C962        C  0.66512037  0.90852491  0.72326981     0.04000
C963        C  0.66351974  0.92190900  0.75107449    -0.12000
C964        C  0.67530671  0.93795012  0.75174671     0.23300
C965        C  0.68703740  0.94171558  0.72252799    -0.12600
C966        C  0.68839723  0.92851661  0.69455470     0.04700
C967        C  0.67497850  0.95118977  0.78255176     0.27200
C968        C  0.66415571  0.96793019  0.78110295    -0.13300
C969        C  0.66443357  0.98085661  0.80974292     0.05300
C970        C  0.67522303  0.97685143  0.84062702    -0.09200
C971        C  0.68581425  0.95976845  0.84213134     0.06100
C972        C  0.68581170  0.94713370  0.81301701    -0.13600
Br973      Br  0.70215139  0.96448346  0.72191463    -0.05700
Br974      Br  0.64444624  0.89117009  0.71626619    -0.00100
Br975      Br  0.64894997  0.00341330  0.80676382     0.00400
Br976      Br  0.70066878  0.92410670  0.81456876    -0.04000
Br977      Br  0.70250256  0.93555182  0.65258467     0.00500
Br978      Br  0.64522250  0.91837338  0.78850933    -0.03300
Br979      Br  0.64847831  0.97274958  0.73998892    -0.04200
Br980      Br  0.70088244  0.95353130  0.88337448    -0.00200
C981        C  0.66307384  0.84575940  0.40263249     0.01200
C982        C  0.66428405  0.83190753  0.42949277     0.04000
C983        C  0.66728573  0.83736629  0.46511950    -0.12000
C984        C  0.66955901  0.85661572  0.47385948     0.23300
C985        C  0.66672898  0.87052638  0.44787619    -0.12600
C986        C  0.66269790  0.86522058  0.41260430     0.04700
C987        C  0.67514225  0.86245027  0.51026728     0.27200
C988        C  0.66126089  0.86830502  0.53462187    -0.13300
C989        C  0.66654008  0.87488122  0.56863171     0.05300
C990        C  0.68607634  0.87587208  0.57850518    -0.09200
C991        C  0.69992154  0.87029968  0.55306611     0.06100
C992        C  0.69442137  0.86342647  0.51946045    -0.13600
Br993      Br  0.66974361  0.89693851  0.46051038    -0.05700
Br994      Br  0.66079519  0.80551962  0.41803244    -0.00100
Br995      Br  0.64623633  0.88154959  0.60075826     0.00400
Br996      Br  0.71338146  0.85539151  0.48547749    -0.04000
Br997      Br  0.65868123  0.88520049  0.37847442     0.00500
Br998      Br  0.66841510  0.81864820  0.50219891    -0.03300
Br999      Br  0.63484482  0.86711149  0.52076107    -0.04200
Br1000     Br  0.72669703  0.87271247  0.56203349    -0.00200
C1001       C  0.56678851  0.86070255  0.14624988     0.01200
C1002       C  0.57261391  0.87680415  0.16574150     0.04000
C1003       C  0.58715292  0.87525007  0.19133938    -0.12000
C1004       C  0.59603327  0.85764731  0.19723241     0.23300
C1005       C  0.59008630  0.84153100  0.17789811    -0.12600
C1006       C  0.57553355  0.84306431  0.15243140     0.04700
C1007       C  0.61130618  0.85569342  0.22435165     0.27200
C1008       C  0.63038090  0.85747971  0.21451253    -0.13300
C1009       C  0.64503365  0.85199922  0.23798158     0.05300
C1010       C  0.64094529  0.84683331  0.27382841    -0.09200
C1011       C  0.62119776  0.84441628  0.28266820     0.06100
C1012       C  0.60674853  0.84927229  0.25834077    -0.13600
Br1013     Br  0.60182627  0.81726729  0.18666957    -0.05700
Br1014     Br  0.56149939  0.90121218  0.15578480    -0.00100
Br1015     Br  0.66933735  0.84753498  0.21621134     0.00400
Br1016     Br  0.58018835  0.84640671  0.27052352    -0.04000
Br1017     Br  0.56719681  0.82086719  0.12664645     0.00500
Br1018     Br  0.59500783  0.89715256  0.21834543    -0.03300
Br1019     Br  0.63622346  0.86668160  0.16751758    -0.04200
Br1020     Br  0.61243087  0.83215104  0.32552894    -0.00200
C1021       C  0.71115057  0.84609758  0.32080299     0.01200
C1022       C  0.72236273  0.84096994  0.29094842     0.04000
C1023       C  0.74229302  0.84329297  0.29172388    -0.12000
C1024       C  0.75135156  0.84963665  0.32298618     0.23300
C1025       C  0.74042263  0.85369889  0.35324059    -0.12600
C1026       C  0.72051470  0.85290985  0.35156431     0.04700
C1027       C  0.77226287  0.85275374  0.32438788     0.27200
C1028       C  0.78483384  0.83747503  0.32949065    -0.13300
C1029       C  0.80454644  0.84069449  0.33288388     0.05300
C1030       C  0.81178706  0.85942108  0.33294066    -0.09200
C1031       C  0.79874520  0.87474826  0.33041264     0.06100
C1032       C  0.77934996  0.87135492  0.32430676    -0.13600
Br1033     Br  0.75297754  0.85960124  0.39768555    -0.05700
Br1034     Br  0.71105214  0.82892031  0.25014231    -0.00100
Br1035     Br  0.82108810  0.81908894  0.33635980     0.00400
Br1036     Br  0.76232026  0.89230164  0.31544930    -0.04000
Br1037     Br  0.70658115  0.86272843  0.39101101     0.00500
Br1038     Br  0.75738050  0.83708202  0.25050512    -0.03300
Br1039     Br  0.77481001  0.81209005  0.33203230    -0.04200
Br1040     Br  0.80678783  0.90064129  0.33842510    -0.00200
C1041       C  0.66791907  0.73876173  0.66643005     0.01200
C1042       C  0.67229805  0.74849819  0.63474534     0.04000
C1043       C  0.67638945  0.76803837  0.63586886    -0.12000
C1044       C  0.67580455  0.77801395  0.66837118     0.23300
C1045       C  0.67225056  0.76835274  0.70003512    -0.12600
C1046       C  0.66914013  0.74875124  0.69931084     0.04700
C1047       C  0.67984597  0.79857766  0.66950808     0.27200
C1048       C  0.69866356  0.80482544  0.66976215    -0.13300
C1049       C  0.70273907  0.82422415  0.66651561     0.05300
C1050       C  0.68782159  0.83801465  0.66813519    -0.09200
C1051       C  0.66879847  0.83130252  0.66964400     0.06100
C1052       C  0.66493428  0.81174168  0.66939118    -0.13600
Br1053     Br  0.67181064  0.78213830  0.74458038    -0.05700
Br1054     Br  0.67308737  0.73556676  0.58967921    -0.00100
Br1055     Br  0.72893020  0.83004053  0.65712726     0.00400
Br1056     Br  0.63908640  0.80263881  0.66829600    -0.04000
Br1057     Br  0.66916886  0.73567084  0.74414271     0.00500
Br1058     Br  0.68274652  0.78141968  0.59291329    -0.03300
Br1059     Br  0.71888342  0.78638349  0.67497669    -0.04200
Br1060     Br  0.64733593  0.84816876  0.66842552    -0.00200
C1061       C  0.62745308  0.68780894  0.71642690     0.01200
C1062       C  0.62899284  0.68516850  0.75394335     0.04000
C1063       C  0.61311899  0.67962037  0.77384869    -0.12000
C1064       C  0.59495974  0.67989011  0.75860571     0.23300
C1065       C  0.59273973  0.68460953  0.72272760    -0.12600
C1066       C  0.60871317  0.68907214  0.70193214     0.04700
C1067       C  0.57819126  0.67858300  0.78220505     0.27200
C1068       C  0.56901997  0.66116008  0.78724891    -0.13300
C1069       C  0.55492582  0.65948781  0.81348213     0.05300
C1070       C  0.54991276  0.67534819  0.83468693    -0.09200
C1071       C  0.55858542  0.69300233  0.82844679     0.06100
C1072       C  0.57264236  0.69460537  0.80221122    -0.13600
Br1073     Br  0.56749407  0.68554332  0.70265859    -0.05700
Br1074     Br  0.64996660  0.69478931  0.78179116    -0.00100
Br1075     Br  0.54417872  0.63487494  0.82254168     0.00400
Br1076     Br  0.58513659  0.71857530  0.79483241    -0.04000
Br1077     Br  0.60382645  0.70016157  0.65591545     0.00500
Br1078     Br  0.61590807  0.67281604  0.82334751    -0.03300
Br1079     Br  0.57670596  0.63936542  0.75960405    -0.04200
Br1080     Br  0.55148650  0.71505007  0.85606827    -0.00200
C1081       C  0.69058215  0.65168177  0.42301219     0.01200
C1082       C  0.70294663  0.66016476  0.44828372     0.04000
C1083       C  0.69599121  0.66645585  0.48135589    -0.12000
C1084       C  0.67701795  0.66307529  0.49095898     0.23300
C1085       C  0.66502943  0.65316149  0.46747611    -0.12600
C1086       C  0.67146245  0.64796809  0.43329819     0.04700
C1087       C  0.67033097  0.66853325  0.52709253     0.27200
C1088       C  0.67663531  0.65802260  0.55645632    -0.13300
C1089       C  0.67198627  0.66392577  0.59102638     0.05300
C1090       C  0.66090782  0.68029001  0.59676848    -0.09200
C1091       C  0.65266348  0.68942101  0.56731330     0.06100
C1092       C  0.65803446  0.68412966  0.53251678    -0.13600
Br1093     Br  0.63956372  0.64689663  0.48226240    -0.05700
Br1094     Br  0.72978599  0.66255121  0.43946789    -0.00100
Br1095     Br  0.67970750  0.64852981  0.62999260     0.00400
Br1096     Br  0.64932235  0.69882255  0.49266849    -0.04000
Br1097     Br  0.65264626  0.63855374  0.40010116     0.00500
Br1098     Br  0.71255851  0.67976667  0.51405167    -0.03300
Br1099     Br  0.69218891  0.63571426  0.54923034    -0.04200
Br1100     Br  0.63292221  0.70798948  0.57453582    -0.00200
C1101       C  0.68977622  0.61966171  0.30118844     0.01200
C1102       C  0.67234444  0.61932659  0.28180197     0.04000
C1103       C  0.66923334  0.60537505  0.25526333    -0.12000
C1104       C  0.68263839  0.59083610  0.24975891     0.23300
C1105       C  0.69788026  0.58904087  0.27350554    -0.12600
C1106       C  0.70078693  0.60275803  0.30020918     0.04700
C1107       C  0.68072495  0.57716367  0.21961955     0.27200
C1108       C  0.66884544  0.56120461  0.22227078    -0.13300
C1109       C  0.66713889  0.54841405  0.19344332     0.05300
C1110       C  0.67767512  0.55136110  0.16189801    -0.09200
C1111       C  0.69074351  0.56652340  0.16069657     0.06100
C1112       C  0.69193519  0.57953861  0.18906410    -0.13600
Br1113     Br  0.71479637  0.56755031  0.26932626    -0.05700
Br1114     Br  0.65077281  0.63449452  0.29622843    -0.00100
Br1115     Br  0.64994427  0.52728936  0.19765248     0.00400
Br1116     Br  0.70918721  0.60067374  0.18634035    -0.04000
Br1117     Br  0.71750848  0.59612031  0.33842394     0.00500
Br1118     Br  0.64644405  0.60585666  0.22670822    -0.03300
Br1119     Br  0.65515017  0.55680302  0.26579617    -0.04200
Br1120     Br  0.70821671  0.56889255  0.12143848    -0.00200
C1121       C  0.68758236  0.69144687  0.32946288     0.01200
C1122       C  0.69191768  0.70109222  0.29757881     0.04000
C1123       C  0.68921718  0.72088101  0.29541508    -0.12000
C1124       C  0.68256313  0.73113748  0.32512429     0.23300
C1125       C  0.67771252  0.72155928  0.35633633    -0.12600
C1126       C  0.67949371  0.70182799  0.35793637     0.04700
C1127       C  0.68031450  0.75200968  0.32407669     0.27200
C1128       C  0.69611824  0.76385443  0.32913391    -0.13300
C1129       C  0.69374484  0.78370325  0.33103313     0.05300
C1130       C  0.67526767  0.79180098  0.32893797    -0.09200
C1131       C  0.65945221  0.77942957  0.32705172     0.06100
C1132       C  0.66202477  0.75986854  0.32259992    -0.13600
Br1133     Br  0.66906581  0.73568993  0.39759364    -0.05700
Br1134     Br  0.70285840  0.68779916  0.25756067    -0.00100
Br1135     Br  0.71620267  0.79888307  0.33659846     0.00400
Br1136     Br  0.64032769  0.74360804  0.31502064    -0.04000
Br1137     Br  0.66904005  0.68947745  0.39840190     0.00500
Br1138     Br  0.69528237  0.73421478  0.25234960    -0.03300
Br1139     Br  0.72103993  0.75256570  0.33372676    -0.04200
Br1140     Br  0.63397320  0.78853072  0.33474576    -0.00200
C1141       C  0.79776300  0.65848553  0.68226731     0.01200
C1142       C  0.78872380  0.66308301  0.71484665     0.04000
C1143       C  0.76914675  0.66645738  0.71575631    -0.12000
C1144       C  0.75856747  0.66615791  0.68409403     0.23300
C1145       C  0.76740606  0.66141961  0.65163600    -0.12600
C1146       C  0.78695039  0.65718707  0.65086119     0.04700
C1147       C  0.73841731  0.67208070  0.68513034     0.27200
C1148       C  0.72440325  0.65946070  0.69667515    -0.13300
C1149       C  0.70535817  0.66547855  0.69985185     0.05300
C1150       C  0.70011566  0.68434271  0.69021919    -0.09200
C1151       C  0.71490234  0.69727320  0.68215395     0.06100
C1152       C  0.73375585  0.69104307  0.67867313    -0.13600
Br1153     Br  0.75267662  0.66090478  0.60842741    -0.05700
Br1154     Br  0.80299229  0.66649013  0.75830963    -0.00100
Br1155     Br  0.68756706  0.64714762  0.71810286     0.00400
Br1156     Br  0.75359021  0.70862573  0.66580265    -0.04000
Br1157     Br  0.79874762  0.64875622  0.60734390     0.00500
Br1158     Br  0.75675810  0.67186558  0.76052642    -0.03300
Br1159     Br  0.73172496  0.63380733  0.70836854    -0.04200
Br1160     Br  0.71053809  0.72413634  0.68044954    -0.00200
C1161       C  0.85398700  0.62761996  0.73439358     0.01200
C1162       C  0.85735842  0.63068366  0.77148755     0.04000
C1163       C  0.86383129  0.61574517  0.79296844    -0.12000
C1164       C  0.86437290  0.59717822  0.77962526     0.23300
C1165       C  0.85956307  0.59355173  0.74416696    -0.12600
C1166       C  0.85352733  0.60841105  0.72221747     0.04700
C1167       C  0.86497311  0.58129806  0.80500219     0.27200
C1168       C  0.88211089  0.57195915  0.81278860    -0.13300
C1169       C  0.88238588  0.55741399  0.83809708     0.05300
C1170       C  0.86570151  0.55294016  0.85695393    -0.09200
C1171       C  0.84852651  0.56225688  0.84899193     0.06100
C1172       C  0.84807948  0.57606410  0.82236243    -0.13600
Br1173     Br  0.85959630  0.56770112  0.72682080    -0.05700
Br1174     Br  0.84737967  0.65223874  0.79742950    -0.00100
Br1175     Br  0.90590717  0.54436783  0.84815517     0.00400
Br1176     Br  0.82432892  0.58805982  0.80972128    -0.04000
Br1177     Br  0.84011951  0.60105387  0.67952658     0.00500
Br1178     Br  0.87003453  0.62011389  0.84248483    -0.03300
Br1179     Br  0.90523930  0.57965949  0.78984536    -0.04200
Br1180     Br  0.82550577  0.55592570  0.87392290    -0.00200
C1181       C  0.84796415  0.69812873  0.69864958     0.01200
C1182       C  0.83361844  0.71177318  0.69183952     0.04000
C1183       C  0.83843749  0.73087237  0.68677317    -0.12000
C1184       C  0.85697642  0.73708896  0.69394829     0.23300
C1185       C  0.87083036  0.72403285  0.70500734    -0.12600
C1186       C  0.86686212  0.70452943  0.70435860     0.04700
C1187       C  0.86191658  0.75733194  0.68950149     0.27200
C1188       C  0.87361758  0.76302398  0.66120603    -0.13300
C1189       C  0.87906668  0.78205111  0.65829112     0.05300
C1190       C  0.87021314  0.79598137  0.67941311    -0.09200
C1191       C  0.85897510  0.79020026  0.70865275     0.06100
C1192       C  0.85533956  0.77086587  0.71415988    -0.13600
Br1193     Br  0.89528454  0.73299454  0.72106156    -0.05700
Br1194     Br  0.80723352  0.70505249  0.68971208    -0.00100
Br1195     Br  0.90114136  0.78831455  0.63062853     0.00400
Br1196     Br  0.84186695  0.76270265  0.75605941    -0.04000
Br1197     Br  0.88822541  0.68731226  0.70611931     0.00500
Br1198     Br  0.81989301  0.74845066  0.66816303    -0.03300
Br1199     Br  0.88201101  0.74492008  0.62603310    -0.04200
Br1200     Br  0.84909608  0.80825074  0.74262268    -0.00200
C1201       C  0.86950078  0.82641182  0.33424761     0.01200
C1202       C  0.86719021  0.81403945  0.30469992     0.04000
C1203       C  0.87094509  0.79452425  0.30812576    -0.12000
C1204       C  0.87626572  0.78710807  0.34125165     0.23300
C1205       C  0.87867336  0.79921469  0.37054482    -0.12600
C1206       C  0.87616130  0.81877925  0.36659898     0.04700
C1207       C  0.87902084  0.76649910  0.34574617     0.27200
C1208       C  0.86321640  0.75469594  0.34972146    -0.13300
C1209       C  0.86572683  0.73508661  0.35439874     0.05300
C1210       C  0.88429982  0.72714759  0.35659988    -0.09200
C1211       C  0.90003178  0.73960883  0.35512089     0.06100
C1212       C  0.89740596  0.75894219  0.34797495    -0.13600
Br1213     Br  0.88481225  0.78879613  0.41661402    -0.05700
Br1214     Br  0.85764307  0.82297984  0.25997705    -0.00100
Br1215     Br  0.84309411  0.72012027  0.35614788     0.00400
Br1216     Br  0.91900630  0.77521048  0.34032640    -0.04000
Br1217     Br  0.88385405  0.83468494  0.40506756     0.00500
Br1218     Br  0.86812279  0.77759102  0.26793804    -0.03300
Br1219     Br  0.83799946  0.76567288  0.34787252    -0.04200
Br1220     Br  0.92526467  0.73106208  0.36613067    -0.00200
C1221       C  0.89161368  0.67201631  0.43515501     0.01200
C1222       C  0.88088495  0.65568614  0.44267154     0.04000
C1223       C  0.87537581  0.65199931  0.47780207    -0.12000
C1224       C  0.88321160  0.66270193  0.50600618     0.23300
C1225       C  0.89732283  0.67627680  0.49857002    -0.12600
C1226       C  0.90072300  0.68167839  0.46315315     0.04700
C1227       C  0.87511456  0.66120387  0.54243957     0.27200
C1228       C  0.86470160  0.67640190  0.55688573    -0.13300
C1229       C  0.85734119  0.67530572  0.59165295     0.05300
C1230       C  0.85674145  0.65754954  0.60978902    -0.09200
C1231       C  0.86507734  0.64174122  0.59192007     0.06100
C1232       C  0.87626803  0.64423861  0.56143598    -0.13600
Br1233     Br  0.91148089  0.68768363  0.53698822    -0.05700
Br1234     Br  0.87274995  0.63888640  0.40500655    -0.00100
Br1235     Br  0.85027462  0.69919959  0.61243924     0.00400
Br1236     Br  0.89306267  0.62424979  0.54553977    -0.04000
Br1237     Br  0.91773524  0.70219477  0.45290718     0.00500
Br1238     Br  0.85530563  0.63397540  0.48622461    -0.03300
Br1239     Br  0.86005758  0.69873103  0.52839204    -0.04200
Br1240     Br  0.85837154  0.61608239  0.60267863    -0.00200
C1241       C  0.98170512  0.66628557  0.16600569     0.01200
C1242       C  0.96581697  0.67858080  0.16652295     0.04000
C1243       C  0.95259876  0.67771226  0.19445422    -0.12000
C1244       C  0.95503322  0.66452093  0.22194050     0.23300
C1245       C  0.97088124  0.65231969  0.22172849    -0.12600
C1246       C  0.98431080  0.65330950  0.19413153     0.04700
C1247       C  0.94184279  0.66469953  0.25270701     0.27200
C1248       C  0.94684820  0.67478978  0.28345537    -0.13300
C1249       C  0.93428934  0.67570149  0.31234338     0.05300
C1250       C  0.91563509  0.66789997  0.30972803    -0.09200
C1251       C  0.91227380  0.65497234  0.28122098     0.06100
C1252       C  0.92488302  0.65424881  0.25204219    -0.13600
Br1253     Br  0.97403734  0.63417496  0.25944990    -0.05700
Br1254     Br  0.96245674  0.69741712  0.13011405    -0.00100
Br1255     Br  0.94387301  0.68671879  0.35588203     0.00400
Br1256     Br  0.91906545  0.63892719  0.21081263    -0.04000
Br1257     Br  0.00577841  0.63622692  0.19476135     0.00500
Br1258     Br  0.93117014  0.69479876  0.19560851    -0.03300
Br1259     Br  0.97081307  0.68810001  0.28521490    -0.04200
Br1260     Br  0.89453318  0.63438505  0.28526081    -0.00200
C1261       C  0.84509182  0.67525396  0.35502951     0.01200
C1262       C  0.83391503  0.67525573  0.38691706     0.04000
C1263       C  0.81421051  0.67181070  0.38553700    -0.12000
C1264       C  0.80525800  0.66778003  0.35313143     0.23300
C1265       C  0.81585858  0.66762374  0.32167019    -0.12600
C1266       C  0.83523299  0.67258104  0.32214554     0.04700
C1267       C  0.78434998  0.66491549  0.35204209     0.27200
C1268       C  0.77659186  0.64738764  0.36158429    -0.13300
C1269       C  0.75679911  0.64505309  0.36262590     0.05300
C1270       C  0.74448615  0.65951314  0.35051217    -0.09200
C1271       C  0.75235147  0.67739760  0.34237464     0.06100
C1272       C  0.77218874  0.68012575  0.34373630    -0.13600
Br1273     Br  0.80349232  0.66051237  0.27773634    -0.05700
Br1274     Br  0.84362611  0.68081438  0.43367328    -0.00100
Br1275     Br  0.74683585  0.62313125  0.38592784     0.00400
Br1276     Br  0.78295510  0.70474717  0.33453045    -0.04000
Br1277     Br  0.84638464  0.67916047  0.27692744     0.00500
Br1278     Br  0.79892475  0.67270038  0.42835236    -0.03300
Br1279     Br  0.79320692  0.62654011  0.37325059    -0.04200
Br1280     Br  0.73648683  0.69844234  0.32978597    -0.00200
C1281       C  0.13413130  0.34524481  0.73216657     0.01200
C1282       C  0.13815874  0.35829303  0.76025045     0.04000
C1283       C  0.12494890  0.36121322  0.78796399    -0.12000
C1284       C  0.10724453  0.35217777  0.78701403     0.23300
C1285       C  0.10236045  0.34073154  0.75797504    -0.12600
C1286       C  0.11512230  0.33822836  0.72978988     0.04700
C1287       C  0.09319930  0.35516727  0.81573373     0.27200
C1288       C  0.09371908  0.34357879  0.84592657    -0.13300
C1289       C  0.07931919  0.34498280  0.87160997     0.05300
C1290       C  0.06431234  0.35814609  0.86720787    -0.09200
C1291       C  0.06396860  0.36991164  0.83694827     0.06100
C1292       C  0.07838582  0.36838089  0.81130627    -0.13600
Br1293     Br  0.07823923  0.32769040  0.75785498    -0.05700
Br1294     Br  0.15884513  0.37583400  0.75832572    -0.00100
Br1295     Br  0.07986461  0.32795721  0.91158961     0.00400
Br1296     Br  0.07785729  0.38428873  0.76977611    -0.04000
Br1297     Br  0.10530903  0.32597899  0.68737806     0.00500
Br1298     Br  0.13090731  0.37760062  0.82779573    -0.03300
Br1299     Br  0.11403534  0.32540221  0.85129702    -0.04200
Br1300     Br  0.04437758  0.38884940  0.83092034    -0.00200
C1301       C  0.15750314  0.34821515  0.60486108     0.01200
C1302       C  0.16150557  0.36786886  0.60128345     0.04000
C1303       C  0.16559049  0.37554719  0.56759562    -0.12000
C1304       C  0.16548382  0.36391456  0.53717170     0.23300
C1305       C  0.16100692  0.34461096  0.54028393    -0.12600
C1306       C  0.15693368  0.33683427  0.57378025     0.04700
C1307       C  0.17172022  0.37146430  0.50226778     0.27200
C1308       C  0.15849031  0.37878168  0.47784622    -0.13300
C1309       C  0.16428147  0.38378922  0.44324815     0.05300
C1310       C  0.18342370  0.38081479  0.43257565    -0.09200
C1311       C  0.19687525  0.37538434  0.45867365     0.06100
C1312       C  0.19100708  0.37058094  0.49312753    -0.13600
Br1313     Br  0.16150369  0.32859828  0.49846140    -0.05700
Br1314     Br  0.16271236  0.38458898  0.64196191    -0.00100
Br1315     Br  0.14523672  0.39334709  0.41081126     0.00400
Br1316     Br  0.20932594  0.36213257  0.52794790    -0.04000
Br1317     Br  0.15026407  0.31051634  0.57615326     0.00500
Br1318     Br  0.17266991  0.40182955  0.56288536    -0.03300
Br1319     Br  0.13221433  0.38101648  0.49159254    -0.04200
Br1320     Br  0.22363636  0.37525476  0.44867678    -0.00200
C1321       C  0.18788831  0.40745612  0.30498354     0.01200
C1322       C  0.19218525  0.42664711  0.31479180     0.04000
C1323       C  0.19028971  0.44147025  0.28995164    -0.12000
C1324       C  0.18430656  0.43763439  0.25507414     0.23300
C1325       C  0.18065984  0.41890649  0.24467690    -0.12600
C1326       C  0.18427655  0.40389554  0.26814656     0.04700
C1327       C  0.18430415  0.45282082  0.22778469     0.27200
C1328       C  0.16906662  0.46566822  0.22541901    -0.13300
C1329       C  0.16876600  0.47945563  0.19848761     0.05300
C1330       C  0.18303633  0.47954814  0.17205783    -0.09200
C1331       C  0.19830840  0.46656357  0.17453676     0.06100
C1332       C  0.19925910  0.45375200  0.20301950    -0.13600
Br1333     Br  0.17175282  0.41380952  0.19688921    -0.05700
Br1334     Br  0.20367508  0.43333602  0.35990244    -0.00100
Br1335     Br  0.14795728  0.49724909  0.19689807     0.00400
Br1336     Br  0.22087485  0.43703079  0.20782844    -0.04000
Br1337     Br  0.18989668  0.37996441  0.24539409     0.00500
Br1338     Br  0.19680957  0.46721623  0.30283435    -0.03300
Br1339     Br  0.14799916  0.46343092  0.25778365    -0.04200
Br1340     Br  0.21801013  0.46601571  0.13893574    -0.00200
C1341       C  0.18397471  0.11681643  0.70040522     0.01200
C1342       C  0.19532181  0.10010661  0.70063121     0.04000
C1343       C  0.19415223  0.08723695  0.72881175    -0.12000
C1344       C  0.18026080  0.08963971  0.75506091     0.23300
C1345       C  0.16640923  0.10388368  0.75100944    -0.12600
C1346       C  0.16773185  0.11695295  0.72284036     0.04700
C1347       C  0.17955225  0.07623155  0.78530943     0.27200
C1348       C  0.16713861  0.06064120  0.78427539    -0.13300
C1349       C  0.16642981  0.04797471  0.81302150     0.05300
C1350       C  0.17861431  0.05054688  0.84262816    -0.09200
C1351       C  0.19186644  0.06555087  0.84243845     0.06100
C1352       C  0.19210260  0.07849431  0.81417538    -0.13600
Br1353     Br  0.14541020  0.10516975  0.78382440    -0.05700
Br1354     Br  0.21097448  0.09311742  0.66082433    -0.00100
Br1355     Br  0.14788824  0.02789551  0.81206188     0.00400
Br1356     Br  0.20970156  0.09940668  0.81482862    -0.04000
Br1357     Br  0.14483358  0.13038010  0.70996314     0.00500
Br1358     Br  0.21177319  0.06626434  0.73180962    -0.03300
Br1359     Br  0.15115354  0.05670060  0.74314727    -0.04200
Br1360     Br  0.21047330  0.06801032  0.87994109    -0.00200
C1361       C  0.18134003  0.18842200  0.66764688     0.01200
C1362       C  0.17917408  0.19988157  0.63710859     0.04000
C1363       C  0.17597680  0.21946119  0.64020908    -0.12000
C1364       C  0.17173172  0.22754305  0.67343960     0.23300
C1365       C  0.17246346  0.21606927  0.70400874    -0.12600
C1366       C  0.17875443  0.19710002  0.70147275     0.04700
C1367       C  0.16727214  0.24819399  0.67591986     0.27200
C1368       C  0.17981569  0.26059636  0.69358250    -0.13300
C1369       C  0.17548270  0.27997754  0.69608898     0.05300
C1370       C  0.16099625  0.28782561  0.67468056    -0.09200
C1371       C  0.14785316  0.27542784  0.65844726     0.06100
C1372       C  0.15073601  0.25565184  0.65980818    -0.13600
Br1373     Br  0.16498900  0.22632862  0.74955405    -0.05700
Br1374     Br  0.17924934  0.18941150  0.59029181    -0.00100
Br1375     Br  0.18829886  0.29505526  0.73170740     0.00400
Br1376     Br  0.13197099  0.23876381  0.63979934    -0.04000
Br1377     Br  0.18677860  0.18465735  0.74462095     0.00500
Br1378     Br  0.17840315  0.23544412  0.59882981    -0.03300
Br1379     Br  0.20371364  0.25151425  0.71213977    -0.04200
Br1380     Br  0.12488225  0.28525223  0.63767418    -0.00200
C1381       C  0.16157856  0.23699537  0.34164377     0.01200
C1382       C  0.17167515  0.24560083  0.37013015     0.04000
C1383       C  0.17627104  0.26509341  0.36901224    -0.12000
C1384       C  0.16939686  0.27662145  0.34129511     0.23300
C1385       C  0.15935133  0.26819032  0.31303764    -0.12600
C1386       C  0.15671833  0.24844697  0.31188990     0.04700
C1387       C  0.17298787  0.29752576  0.34132175     0.27200
C1388       C  0.16320768  0.30951820  0.36515852    -0.13300
C1389       C  0.16686416  0.32914902  0.36566880     0.05300
C1390       C  0.17995086  0.33720117  0.34181456    -0.09200
C1391       C  0.18837205  0.32537425  0.31573964     0.06100
C1392       C  0.18560349  0.30557206  0.31657578    -0.13600
Br1393     Br  0.14917482  0.28377258  0.27542801    -0.05700
Br1394     Br  0.17933587  0.23131958  0.41120529    -0.00100
Br1395     Br  0.15281071  0.34499047  0.39762475     0.00400
Br1396     Br  0.19995217  0.28927869  0.28508998    -0.04000
Br1397     Br  0.14920828  0.23737816  0.26676350     0.00500
Br1398     Br  0.19263080  0.27603928  0.40482787    -0.03300
Br1399     Br  0.14462494  0.29901929  0.39709609    -0.04200
Br1400     Br  0.20457465  0.33594883  0.27978160    -0.00200
C1401       C  0.19193438  0.14625001  0.57863668     0.01200
C1402       C  0.17314977  0.14368431  0.56566498     0.04000
C1403       C  0.16889686  0.14706425  0.52976406    -0.12000
C1404       C  0.18233661  0.15577063  0.50775513     0.23300
C1405       C  0.20110772  0.15816295  0.52014228    -0.12600
C1406       C  0.20611819  0.15240574  0.55480360     0.04700
C1407       C  0.17631905  0.16312768  0.47241908     0.27200
C1408       C  0.18150672  0.15345502  0.44106570    -0.13300
C1409       C  0.17620363  0.16076419  0.40775689     0.05300
C1410       C  0.16496900  0.17729231  0.40563767    -0.09200
C1411       C  0.15790763  0.18557771  0.43693320     0.06100
C1412       C  0.16411564  0.17903623  0.47015366    -0.13600
Br1413     Br  0.21965484  0.17037631  0.49044841    -0.05700
Br1414     Br  0.15205364  0.13917758  0.59723878    -0.00100
Br1415     Br  0.18284054  0.14699674  0.36552067     0.00400
Br1416     Br  0.15494902  0.19161375  0.51219368    -0.04000
Br1417     Br  0.23238258  0.15305206  0.56929279     0.00500
Br1418     Br  0.14428713  0.14041900  0.51079656    -0.03300
Br1419     Br  0.19431879  0.12930268  0.44398615    -0.04200
Br1420     Br  0.13824219  0.20467633  0.43422739    -0.00200
C1421       C  0.11870791  0.18248698  0.30463057     0.01200
C1422       C  0.11762195  0.16530516  0.28526435     0.04000
C1423       C  0.10309367  0.16258392  0.26025884    -0.12000
C1424       C  0.08840060  0.17596279  0.25761684     0.23300
C1425       C  0.08690342  0.19048143  0.28317389    -0.12600
C1426       C  0.10169798  0.19324518  0.30785524     0.04700
C1427       C  0.07482504  0.17481812  0.22775751     0.27200
C1428       C  0.07853830  0.18510891  0.19671185    -0.13300
C1429       C  0.06611337  0.18384103  0.16767764     0.05300
C1430       C  0.05081561  0.17095306  0.16836911    -0.09200
C1431       C  0.04713239  0.16055405  0.19956611     0.06100
C1432       C  0.05894054  0.16282973  0.22949701    -0.13600
Br1433     Br  0.06454198  0.20631317  0.28428450    -0.05700
Br1434     Br  0.13387191  0.14431877  0.29675630    -0.00100
Br1435     Br  0.06972359  0.20057261  0.12778419     0.00400
Br1436     Br  0.05412308  0.14883193  0.27238867    -0.04000
Br1437     Br  0.09644403  0.20815176  0.34997977     0.00500
Br1438     Br  0.10358505  0.14086557  0.22893088    -0.03300
Br1439     Br  0.10143640  0.19995239  0.19315248    -0.04200
Br1440     Br  0.02696054  0.14214729  0.20089206    -0.00200
C1441       C  0.47741153  0.16907086  0.83668183     0.01200
C1442       C  0.47924051  0.15638471  0.80757573     0.04000
C1443       C  0.46542759  0.15608040  0.78039833    -0.12000
C1444       C  0.44976964  0.16850448  0.78173916     0.23300
C1445       C  0.44767129  0.18091373  0.81084652    -0.12600
C1446       C  0.46134188  0.18120807  0.83827430     0.04700
C1447       C  0.43580296  0.16901383  0.75195802     0.27200
C1448       C  0.43983316  0.17960930  0.72154442    -0.13300
C1449       C  0.42676553  0.18023925  0.69334965     0.05300
C1450       C  0.40815874  0.17267683  0.69721237    -0.09200
C1451       C  0.40537131  0.15968033  0.72558859     0.06100
C1452       C  0.41895373  0.15839348  0.75325938    -0.13600
Br1453     Br  0.42570976  0.19730673  0.81309094    -0.05700
Br1454     Br  0.49971600  0.13815089  0.80585767    -0.00100
Br1455     Br  0.43535340  0.19054923  0.64888761     0.00400
Br1456     Br  0.41461603  0.14214337  0.79347573    -0.04000
Br1457     Br  0.45779966  0.19859270  0.87754909     0.00500
Br1458     Br  0.46741077  0.13804262  0.74184002    -0.03300
Br1459     Br  0.46285113  0.19435686  0.71950084    -0.04200
Br1460     Br  0.38649456  0.13996295  0.72347155    -0.00200
C1461       C  0.33663006  0.18308496  0.66461393     0.01200
C1462       C  0.32887829  0.18068515  0.69937948     0.04000
C1463       C  0.30985171  0.17519230  0.70378416    -0.12000
C1464       C  0.29772314  0.17428026  0.67435741     0.23300
C1465       C  0.30440653  0.17879042  0.64046724    -0.12600
C1466       C  0.32367518  0.18299377  0.63519826     0.04700
C1467       C  0.27771091  0.16854329  0.67806761     0.27200
C1468       C  0.27278183  0.14975327  0.67034983    -0.13300
C1469       C  0.25376793  0.14502807  0.66397106     0.05300
C1470       C  0.23922946  0.15870556  0.66831783    -0.09200
C1471       C  0.24433731  0.17756404  0.67718235     0.06100
C1472       C  0.26353769  0.18242809  0.68179381    -0.13600
Br1473     Br  0.28664718  0.17874231  0.60086815    -0.05700
Br1474     Br  0.34267267  0.18780574  0.74197758    -0.00100
Br1475     Br  0.24847725  0.12057256  0.64383320     0.00400
Br1476     Br  0.27076271  0.20833361  0.69158441    -0.04000
Br1477     Br  0.33031162  0.18889933  0.58690762     0.00500
Br1478     Br  0.30022749  0.16861232  0.75008154    -0.03300
Br1479     Br  0.29246061  0.13074103  0.66651718    -0.04200
Br1480     Br  0.22579679  0.19732891  0.68215273    -0.00200
C1481       C  0.29037169  0.16166383  0.31203444     0.01200
C1482       C  0.28234434  0.16656927  0.27879782     0.04000
C1483       C  0.26272851  0.16964261  0.27543404    -0.12000
C1484       C  0.25108505  0.16934769  0.30562144     0.23300
C1485       C  0.25894342  0.16492828  0.33902304    -0.12600
C1486       C  0.27843701  0.16057992  0.34207413     0.04700
C1487       C  0.23081076  0.17481858  0.30221011     0.27200
C1488       C  0.22562217  0.19402105  0.30382734    -0.13300
C1489       C  0.20639891  0.19925927  0.30160872     0.05300
C1490       C  0.19207804  0.18535100  0.29837611    -0.09200
C1491       C  0.19779238  0.16652535  0.29036668     0.06100
C1492       C  0.21698724  0.16114030  0.29413988    -0.13600
Br1493     Br  0.24297629  0.16530741  0.38059070    -0.05700
Br1494     Br  0.29800966  0.17166156  0.23835693    -0.00100
Br1495     Br  0.20007480  0.22569267  0.29979644     0.00400
Br1496     Br  0.22446684  0.13492251  0.28939872    -0.04000
Br1497     Br  0.28854438  0.15272963  0.38729861     0.00500
Br1498     Br  0.25167937  0.17488842  0.22945993    -0.03300
Br1499     Br  0.24495927  0.21312975  0.30956653    -0.04200
Br1500     Br  0.18028131  0.14806045  0.27213267    -0.00200
C1501       C  0.33972786  0.15995993  0.40168933     0.01200
C1502       C  0.34031093  0.17783320  0.41972861     0.04000
C1503       C  0.34555858  0.17884522  0.45584021    -0.12000
C1504       C  0.35442962  0.16332147  0.47222639     0.23300
C1505       C  0.35411096  0.14563622  0.45468487    -0.12600
C1506       C  0.34453051  0.14368391  0.42194843     0.04700
C1507       C  0.36389070  0.16604520  0.50756861     0.27200
C1508       C  0.37881839  0.17932231  0.51135926    -0.13300
C1509       C  0.38472697  0.18526761  0.54552421     0.05300
C1510       C  0.37723220  0.17657628  0.57594262    -0.09200
C1511       C  0.36498920  0.16090029  0.57164406     0.06100
C1512       C  0.35700820  0.15685044  0.53811157    -0.13600
Br1513     Br  0.36772085  0.12424783  0.47381672    -0.05700
Br1514     Br  0.33649913  0.20191793  0.39729057    -0.00100
Br1515     Br  0.40312818  0.20519839  0.55078116     0.00400
Br1516     Br  0.33482821  0.14086665  0.53538840    -0.04000
Br1517     Br  0.33581605  0.11871634  0.40836824     0.00500
Br1518     Br  0.34086088  0.20175937  0.48310418    -0.03300
Br1519     Br  0.39062107  0.18994180  0.46971394    -0.04200
Br1520     Br  0.35840585  0.14528973  0.61160556    -0.00200
C1521       C  0.35326517  0.13149901  0.27722283     0.01200
C1522       C  0.34807866  0.12942840  0.24094027     0.04000
C1523       C  0.35202256  0.11255806  0.22244647    -0.12000
C1524       C  0.36258555  0.09815091  0.23881487     0.23300
C1525       C  0.37106619  0.10168360  0.27209929    -0.12600
C1526       C  0.36739886  0.11887165  0.29023171     0.04700
C1527       C  0.36645078  0.08052349  0.21829400     0.27200
C1528       C  0.35215896  0.06665995  0.21485085    -0.13300
C1529       C  0.35362456  0.05246658  0.18844481     0.05300
C1530       C  0.36953116  0.05195393  0.16585054    -0.09200
C1531       C  0.38440423  0.06502090  0.17101778     0.06100
C1532       C  0.38273740  0.07945639  0.19672318    -0.13600
Br1533     Br  0.38818138  0.08329273  0.29227208    -0.05700
Br1534     Br  0.33821966  0.15032576  0.21418141    -0.00100
Br1535     Br  0.33303306  0.03499995  0.18079559     0.00400
Br1536     Br  0.40171482  0.09908935  0.19954177    -0.04000
Br1537     Br  0.38629701  0.12731961  0.32410499     0.00500
Br1538     Br  0.34316465  0.10916880  0.17410826    -0.03300
Br1539     Br  0.32970647  0.06843668  0.24395460    -0.04200
Br1540     Br  0.40690559  0.06352047  0.14196921    -0.00200
C1541       C  0.30182060  0.35464990  0.64969565     0.01200
C1542       C  0.29665048  0.33864020  0.66956054     0.04000
C1543       C  0.27735969  0.33451895  0.67522216    -0.12000
C1544       C  0.26320273  0.34575580  0.65913124     0.23300
C1545       C  0.26844026  0.36029236  0.63575904    -0.12600
C1546       C  0.28760199  0.36538676  0.63251194     0.04700
C1547       C  0.24279938  0.34229337  0.66638481     0.27200
C1548       C  0.23383555  0.32656246  0.65130490    -0.13300
C1549       C  0.21480278  0.32251024  0.65951276     0.05300
C1550       C  0.20328921  0.33600603  0.67847605    -0.09200
C1551       C  0.21247950  0.35282764  0.69084350     0.06100
C1552       C  0.23223336  0.35519011  0.68690941    -0.13600
Br1553     Br  0.24927439  0.37288760  0.60771017    -0.05700
Br1554     Br  0.31586065  0.32279515  0.69025943    -0.00100
Br1555     Br  0.20679668  0.29743394  0.64575761     0.00400
Br1556     Br  0.24491128  0.37679271  0.70814624    -0.04000
Br1557     Br  0.29411403  0.38765008  0.60575886     0.00500
Br1558     Br  0.27033514  0.31368266  0.70544460    -0.03300
Br1559     Br  0.24778471  0.31105892  0.61755347    -0.04200
Br1560     Br  0.19881519  0.37447873  0.70869864    -0.00200
C1561       C  0.34821299  0.40303832  0.69156453     0.01200
C1562       C  0.35196306  0.40150456  0.72858713     0.04000
C1563       C  0.35657559  0.41755359  0.74898683    -0.12000
C1564       C  0.35498143  0.43566655  0.73422271     0.23300
C1565       C  0.34880030  0.43773009  0.69904856    -0.12600
C1566       C  0.34448652  0.42163375  0.67826396     0.04700
C1567       C  0.35556322  0.45236146  0.75812158     0.27200
C1568       C  0.33948905  0.45669109  0.77875926    -0.13300
C1569       C  0.34053375  0.47072437  0.80523674     0.05300
C1570       C  0.35761227  0.48076169  0.81080076    -0.09200
C1571       C  0.37301488  0.47783095  0.78721536     0.06100
C1572       C  0.37204874  0.46339417  0.76127039    -0.13600
Br1573     Br  0.34470622  0.46295198  0.68076048    -0.05700
Br1574     Br  0.34574996  0.37900303  0.75453895    -0.00100
Br1575     Br  0.31823343  0.47641668  0.83299013     0.00400
Br1576     Br  0.39338183  0.45818902  0.73061883    -0.04000
Br1577     Br  0.32892570  0.42610559  0.63667102     0.00500
Br1578     Br  0.36358336  0.41495214  0.79849946    -0.03300
Br1579     Br  0.31612500  0.44295287  0.77096397    -0.04200
Br1580     Br  0.39586103  0.49271568  0.79094520    -0.00200
C1581       C  0.37792182  0.23308553  0.65432198     0.01200
C1582       C  0.39411664  0.24485132  0.65107852     0.04000
C1583       C  0.39263754  0.26454023  0.65604006    -0.12000
C1584       C  0.37475741  0.27296806  0.66044044     0.23300
C1585       C  0.35842219  0.26170384  0.66149046    -0.12600
C1586       C  0.36002078  0.24186605  0.66031937     0.04700
C1587       C  0.37289521  0.29380124  0.66146590     0.27200
C1588       C  0.36988572  0.30339428  0.69377416    -0.13300
C1589       C  0.36543684  0.32288709  0.69377680     0.05300
C1590       C  0.36475308  0.33301274  0.66128833    -0.09200
C1591       C  0.37094779  0.32357858  0.63011718     0.06100
C1592       C  0.37369829  0.30394782  0.62969464    -0.13600
Br1593     Br  0.33373512  0.27371487  0.66401313    -0.05700
Br1594     Br  0.41827944  0.23480142  0.63684435    -0.00100
Br1595     Br  0.35984123  0.33465869  0.73853607     0.00400
Br1596     Br  0.37762596  0.29073195  0.58513510    -0.04000
Br1597     Br  0.33747823  0.22775920  0.67030089     0.00500
Br1598     Br  0.41506914  0.28023417  0.65648675    -0.03300
Br1599     Br  0.37108797  0.28936555  0.73765619    -0.04200
Br1600     Br  0.37841594  0.33728863  0.58888218    -0.00200
C1601       C  0.37049248  0.29747576  0.31934738     0.01200
C1602       C  0.37313429  0.28624870  0.34975444     0.04000
C1603       C  0.36803720  0.26699246  0.34913784    -0.12000
C1604       C  0.36176235  0.25853225  0.31719235     0.23300
C1605       C  0.36002243  0.26948517  0.28638913    -0.12600
C1606       C  0.36258418  0.28909928  0.28839834     0.04700
C1607       C  0.35579029  0.23846674  0.31622030     0.27200
C1608       C  0.36942964  0.22397620  0.31825887    -0.13300
C1609       C  0.36367102  0.20498202  0.31879443     0.05300
C1610       C  0.34435921  0.20022912  0.31303766    -0.09200
C1611       C  0.33070910  0.21489562  0.31040040     0.06100
C1612       C  0.33638948  0.23392323  0.31302852    -0.13600
Br1613     Br  0.35416738  0.25756678  0.24130837    -0.05700
Br1614     Br  0.38309509  0.29713445  0.39261408    -0.00100
Br1615     Br  0.38208208  0.18604252  0.33261297     0.00400
Br1616     Br  0.31752069  0.25387746  0.31273029    -0.04000
Br1617     Br  0.35093636  0.30419869  0.25196604     0.00500
Br1618     Br  0.36948662  0.25226561  0.39209982    -0.03300
Br1619     Br  0.39609791  0.23020392  0.31991501    -0.04200
Br1620     Br  0.30412726  0.20947195  0.30404308    -0.00200
C1621       C  0.35049964  0.37087933  0.56904197     0.01200
C1622       C  0.36759388  0.37943606  0.55664491     0.04000
C1623       C  0.37240226  0.37860364  0.52042120    -0.12000
C1624       C  0.36200596  0.36709184  0.49699397     0.23300
C1625       C  0.34552056  0.35797998  0.50894780    -0.12600
C1626       C  0.33927444  0.36050356  0.54423987     0.04700
C1627       C  0.36839455  0.36442258  0.45967406     0.27200
C1628       C  0.35901032  0.37402383  0.43211295    -0.13300
C1629       C  0.36343338  0.36981353  0.39651915     0.05300
C1630       C  0.37758812  0.35631095  0.38823436    -0.09200
C1631       C  0.38870895  0.34873968  0.41586264     0.06100
C1632       C  0.38351330  0.35198659  0.45154625    -0.13600
Br1633     Br  0.33154452  0.34190545  0.47639654    -0.05700
Br1634     Br  0.38684994  0.38928959  0.58863140    -0.00100
Br1635     Br  0.35060008  0.38332061  0.35938842     0.00400
Br1636     Br  0.39616073  0.33839006  0.48908211    -0.04000
Br1637     Br  0.31501765  0.34988514  0.55666163     0.00500
Br1638     Br  0.39331438  0.39335846  0.50254033    -0.03300
Br1639     Br  0.33952157  0.39237914  0.44337059    -0.04200
Br1640     Br  0.41175617  0.33522844  0.40490156    -0.00200
C1641       C  0.40010950  0.35325136  0.25884553     0.01200
C1642       C  0.40916582  0.37115989  0.26150334     0.04000
C1643       C  0.42538393  0.37495751  0.24103071    -0.12000
C1644       C  0.43093941  0.36227082  0.21412526     0.23300
C1645       C  0.41970018  0.34643523  0.20636438    -0.12600
C1646       C  0.40412595  0.34212209  0.22801767     0.04700
C1647       C  0.44730761  0.36642489  0.19103054     0.27200
C1648       C  0.44474210  0.37806949  0.16123129    -0.13300
C1649       C  0.45945680  0.38002351  0.13653245     0.05300
C1650       C  0.47618670  0.36914391  0.13995866    -0.09200
C1651       C  0.47897936  0.35789920  0.17034358     0.06100
C1652       C  0.46466974  0.35690679  0.19630506    -0.13600
Br1653     Br  0.42563554  0.33084422  0.16526492    -0.05700
Br1654     Br  0.39716761  0.39219110  0.28581424    -0.00100
Br1655     Br  0.45675289  0.39800607  0.09847153     0.00400
Br1656     Br  0.46816710  0.34157673  0.23806087    -0.04000
Br1657     Br  0.38739871  0.32269082  0.21090226     0.00500
Br1658     Br  0.44005079  0.39752567  0.24967057    -0.03300
Br1659     Br  0.42046506  0.38999659  0.15265876    -0.04200
Br1660     Br  0.50145462  0.34247698  0.17485764    -0.00200
C1661       C  0.33220956  0.34651964  0.30939036     0.01200
C1662       C  0.32254930  0.36251104  0.29458128     0.04000
C1663       C  0.30326783  0.36585334  0.30313894    -0.12000
C1664       C  0.29472108  0.35577919  0.33100946     0.23300
C1665       C  0.30460027  0.34092751  0.34697953    -0.12600
C1666       C  0.32153751  0.33457768  0.33207680     0.04700
C1667       C  0.27499182  0.35973222  0.34233668     0.27200
C1668       C  0.27045911  0.37664949  0.36037473    -0.13300
C1669       C  0.25134590  0.38094786  0.36764498     0.05300
C1670       C  0.23712143  0.36707542  0.36184268    -0.09200
C1671       C  0.24275076  0.34873278  0.35151519     0.06100
C1672       C  0.26093270  0.34578284  0.33767613    -0.13600
Br1673     Br  0.29513337  0.32919989  0.38969950    -0.05700
Br1674     Br  0.33469165  0.38121739  0.26519700    -0.00100
Br1675     Br  0.24501015  0.40574167  0.38587096     0.00400
Br1676     Br  0.26608777  0.32285703  0.31109050    -0.04000
Br1677     Br  0.32668411  0.30798229  0.33767400     0.00500
Br1678     Br  0.28847562  0.38425024  0.27711679    -0.03300
Br1679     Br  0.29042592  0.39355820  0.37556543    -0.04200
Br1680     Br  0.22727407  0.32702364  0.36071017    -0.00200
loop_ 
_geom_bond_atom_site_label_1 
_geom_bond_atom_site_label_2 
_geom_bond_distance 
_geom_bond_site_symmetry_2 
_ccdc_geom_bond_type 
C1            C2   1.548       .  S
C1            C7   1.537       .  S
C1            C5   1.551       .  S
C1         C1641   1.547       .  S
C2            H9   1.078       .  S
C2            C3   1.380       .  D
C3            C4   1.543       .  S
C3         C1661   1.516       .  S
C4            C8   1.544       .  S
C4            C6   1.532       .  S
C4           H10   1.105       .  S
C5           H11   1.083       .  S
C5            C6   1.358       .  D
C6         C1630   1.491       .  S
C7           H12   1.084       .  S
C7            C8   1.361       .  D
C8         C1601   1.489       .  S
C13          C14   1.558       .  S
C13          C19   1.522       .  S
C13          C17   1.540       .  S
C13        C1561   1.547       .  S
C14          H21   1.084       .  S
C14          C15   1.373       .  D
C15          C16   1.543       .  S
C15        C1590   1.507       .  S
C16          C20   1.547       .  S
C16          C18   1.549       .  S
C16          H22   1.107       .  S
C17          H23   1.079       .  S
C17          C18   1.368       .  D
C18        C1621   1.509       .  S
C19          H24   1.087       .  S
C19          C20   1.357       .  D
C20        C1541   1.483       .  S
C25          C26   1.531       .  S
C25          C31   1.541       .  S
C25          C29   1.547       .  S
C25        C1521   1.552       .  S
C26          H33   1.086       .  S
C26          C27   1.367       .  D
C27          C28   1.544       .  S
C27        C1610   1.489       .  S
C28          C32   1.542       .  S
C28          C30   1.544       .  S
C28          H34   1.102       .  S
C29          H35   1.069       .  S
C29          C30   1.374       .  D
C30        C1501   1.523       .  S
C31          H36   1.084       .  S
C31          C32   1.365       .  D
C32        C1481   1.495       .  S
C37          C38   1.550       .  S
C37          C43   1.541       .  S
C37          C41   1.535       .  S
C37        C1450   1.557       .  S
C38          H45   1.072       .  S
C38          C39   1.378       .  D
C39          C40   1.547       .  S
C39        C1461   1.519       .  S
C40          C44   1.539       .  S
C40          C42   1.554       .  S
C40          H46   1.099       .  S
C41          H47   1.087       .  S
C41          C42   1.362       .  D
C42        C1510   1.494       .  S
C43          H48   1.087       .  S
C43          C44   1.359       .  D
C44        C1581   1.505       .  S
C49          C50   1.560       .  S
C49          C55   1.542       .  S
C49          C53   1.522       .  S
C49        C1421   1.541       .  S
C50          H57   1.084       .  S
C50          C51   1.375       .  D
C51          C52   1.539       .  S
C51        C1490   1.507       .  S
C52          C56   1.552       .  S
C52          C54   1.548       .  S
C52          H58   1.108       .  S
C53          H59   1.082       .  S
C53          C54   1.359       .  D
C54        C1410   1.481       .  S
C55          H60   1.045       .  S
C55          C56   1.369       .  D
C56        C1381   1.513       .  S
C61          C62   1.553       .  S
C61          C67   1.540       .  S
C61          C65   1.532       .  S
C61        C1341   1.553       .  S
C62          H69   1.080       .  S
C62          C63   1.372       .  D
C63          C64   1.543       .  S
C63        C1361   1.511       .  S
C64          C68   1.541       .  S
C64          C66   1.550       .  S
C64          H70   1.108       .  S
C65          H71   1.090       .  S
C65          C66   1.365       .  D
C66        C1401   1.499       .  S
C67          H72   1.080       .  S
C67          C68   1.365       .  D
C68        C1470   1.495       .  S
C73          C74   1.556       .  S
C73          C79   1.526       .  S
C73          C77   1.548       .  S
C73        C1321   1.556       .  S
C74          H81   1.083       .  S
C74          C75   1.369       .  D
C75          C76   1.544       .  S
C75        C1390   1.503       .  S
C76          C80   1.545       .  S
C76          C78   1.545       .  S
C76          H82   1.108       .  S
C77          H83   1.081       .  S
C77          C78   1.372       .  D
C78        C1310   1.504       .  S
C79          H84   1.088       .  S
C79          C80   1.359       .  D
C80        C1670   1.490       .  S
C85          C86   1.566       .  S
C85          C91   1.528       .  S
C85          C89   1.538       .  S
C85        C1281   1.554       .  S
C86          H93   1.078       .  S
C86          C87   1.389       .  D
C87          C88   1.540       .  S
C87        C1550   1.527       .  S
C88          C92   1.561       .  S
C88          C90   1.541       .  S
C88          H94   1.099       .  S
C89          H95   1.086       .  S
C89          C90   1.362       .  D
C90        C1301   1.507       .  S
C91          H96   1.087       .  S
C91          C92   1.350       .  D
C92        C1370   1.493       .  S
C97          C98   1.528       .  S
C97         C103   1.541       .  S
C97         C101   1.558       .  S
C97        C1250   1.557       .  S
C98         H105   1.086       .  S
C98          C99   1.357       .  D
C99         C100   1.551       .  S
C99        C1221   1.485       .  S
C100        C104   1.538       .  S
C100        C102   1.550       .  S
C100        H106   1.098       .  S
C101        H107   1.070       .  S
C101        C102   1.384       .  D
C102       C1261   1.528       .  S
C103        H108   1.086       .  S
C103        C104   1.362       .  D
C104       C1210   1.508       .  S
C109        C110   1.546       .  S
C109        C115   1.518       .  S
C109        C113   1.545       .  S
C109       C1161   1.546       .  S
C110        H117   1.084       .  S
C110        C111   1.380       .  D
C111        C112   1.555       .  S
C111       C1230   1.528       .  S
C112        C116   1.542       .  S
C112        C114   1.547       .  S
C112        H118   1.102       .  S
C113        H119   1.078       .  S
C113        C114   1.370       .  D
C114       C1181   1.500       .  S
C115        H120   1.088       .  S
C115        C116   1.348       .  D
C116       C1141   1.483       .  S
C121        C122   1.536       .  S
C121        C127   1.545       .  S
C121        C125   1.552       .  S
C121       C1101   1.558       .  S
C122        H129   1.085       .  S
C122        C123   1.369       .  D
C123        C124   1.547       .  S
C123       C1081   1.506       .  S
C124        C128   1.547       .  S
C124        C126   1.537       .  S
C124        H130   1.108       .  S
C125        H131   1.082       .  S
C125        C126   1.367       .  D
C126       C1121   1.499       .  S
C127        H132   1.086       .  S
C127        C128   1.371       .  D
C128       C1270   1.503       .  S
C133        C134   1.543       .  S
C133        C139   1.525       .  S
C133        C137   1.554       .  S
C133       C1061   1.550       .  S
C134        H141   1.085       .  S
C134        C135   1.364       .  D
C135        C136   1.548       .  S
C135       C1090   1.491       .  S
C136        C140   1.552       .  S
C136        C138   1.545       .  S
C136        H142   1.108       .  S
C137        H143   1.073       .  S
C137        C138   1.373       .  D
C138       C1150   1.513       .  S
C139        H144   1.087       .  S
C139        C140   1.361       .  D
C140       C1041   1.501       .  S
C145        C146   1.536       .  S
C145        C151   1.530       .  S
C145        C149   1.559       .  S
C145       C1010   1.563       .  S
C146        H153   1.083       .  S
C146        C147   1.359       .  D
C147        C148   1.546       .  S
C147        C981   1.496       .  S
C148        C152   1.546       .  S
C148        C150   1.546       .  S
C148        H154   1.108       .  S
C149        H155   1.081       .  S
C149        C150   1.378       .  D
C150       C1021   1.507       .  S
C151        H156   1.086       .  S
C151        C152   1.367       .  D
C152       C1130   1.506       .  S
C157        C158   1.539       .  S
C157        C163   1.524       .  S
C157        C161   1.564       .  S
C157        C961   1.546       .  S
C158        H165   1.085       .  S
C158        C159   1.368       .  D
C159        C160   1.540       .  S
C159        C990   1.506       .  S
C160        C164   1.553       .  S
C160        C162   1.531       .  S
C160        H166   1.100       .  S
C161        H167   1.080       .  S
C161        C162   1.382       .  D
C162       C1050   1.514       .  S
C163        H168   1.088       .  S
C163        C164   1.347       .  D
C164        C941   1.476       .  S
C169        C170   1.557       .  S
C169        C175   1.536       .  S
C169        C173   1.539       .  S
C169        C930   1.558       .  S
C170        H177   1.081       .  S
C170        C171   1.375       .  D
C171        C172   1.549       .  S
C171        C901   1.513       .  S
C172        C176   1.549       .  S
C172        C174   1.548       .  S
C172        H178   1.109       .  S
C173        H179   1.086       .  S
C173        C174   1.369       .  D
C174       C1201   1.500       .  S
C175        H180   1.085       .  S
C175        C176   1.360       .  D
C176       C1030   1.506       .  S
C181        C182   1.557       .  S
C181        C187   1.527       .  S
C181        C185   1.551       .  S
C181        C881   1.558       .  S
C182        H189   1.079       .  S
C182        C183   1.372       .  D
C183        C184   1.539       .  S
C183        C910   1.518       .  S
C184        C188   1.556       .  S
C184        C186   1.535       .  S
C184        H190   1.098       .  S
C185        H191   1.082       .  S
C185        C186   1.381       .  D
C186        C950   1.515       .  S
C187        H192   1.086       .  S
C187        C188   1.351       .  D
C188       C1190   1.486       .  S
In193       O195   2.254       .  S
In193       O196   2.241       .  S
In193       O204   2.256       .  S
In193       O198   2.248       .  S
In193       O200   2.263       .  S
In193       O201   2.232       .  S
In193       O202   2.244       .  S
In193       O205   2.240       .  S
C194        O200   1.261       .  A
C194        O202   1.258       .  A
C194        C861   1.477       .  S
O195        C203   1.262       .  A
O196        C203   1.257       .  A
C197        O204   1.259       .  A
C197        O198   1.260       .  A
C197        C841   1.480       .  S
C199        O201   1.258       .  A
C199        O205   1.259       .  A
C199       C1170   1.469       .  S
C203        C830   1.482       .  S
In206       O208   2.258       .  S
In206       O209   2.249       .  S
In206       O217   2.258       .  S
In206       O211   2.266       .  S
In206       O213   2.251   1_455  S
In206       O214   2.255       .  S
In206       O215   2.234       .  S
In206       O218   2.236   1_455  S
C207        O213   1.265       .  A
C207        O215   1.259   1_655  A
C207        C870   1.480       .  S
O208        C216   1.262       .  A
O209        C216   1.262       .  A
C210        O217   1.261       .  A
C210        O211   1.262       .  A
C210        C801   1.490       .  S
C212        O214   1.264   1_655  A
C212        O218   1.259       .  A
C212       C1241   1.485       .  S
C216        C790   1.487       .  S
In219       O221   2.242       .  S
In219       O222   2.253       .  S
In219       O230   2.260       .  S
In219       O224   2.265       .  S
In219       O226   2.228   1_545  S
In219       O227   2.263   1_545  S
In219       O228   2.260   1_545  S
In219       O231   2.239   1_545  S
C220        O226   1.257       .  A
C220        O228   1.265       .  A
C220        C770   1.487       .  S
O221        C229   1.262       .  A
O222        C229   1.264       .  A
C223        O230   1.261       .  A
C223        O224   1.262       .  A
C223        C750   1.488       .  S
C225        O227   1.265       .  A
C225        O231   1.259       .  A
C225        C921   1.488       .  S
C229        C730   1.486       .  S
In232       O234   2.256       .  S
In232       O235   2.252       .  S
In232       O243   2.273       .  S
In232       O237   2.259       .  S
In232       O239   2.254       .  S
In232       O240   2.265       .  S
In232       O241   2.226       .  S
In232       O244   2.243   1_455  S
C233        O239   1.264   1_655  A
C233        O241   1.260   1_655  A
C233        C761   1.483       .  S
O234        C242   1.259       .  A
O235        C242   1.260       .  A
C236        O243   1.260       .  A
C236        O237   1.258       .  A
C236        C810   1.481       .  S
C238        O240   1.262   1_655  A
C238        O244   1.259       .  A
C238        C890   1.479       .  S
C242        C701   1.486       .  S
In245       O247   2.251       .  S
In245       O248   2.249       .  S
In245       O256   2.262       .  S
In245       O250   2.241       .  S
In245       O252   2.257       .  S
In245       O253   2.250       .  S
In245       O254   2.234       .  S
In245       O257   2.232       .  S
C246        O252   1.263       .  A
C246        O254   1.257       .  A
C246        C681   1.489       .  S
O247        C255   1.260       .  A
O248        C255   1.261       .  A
C249        O256   1.260       .  A
C249        O250   1.258       .  A
C249        C661   1.486       .  S
C251        O253   1.262       .  A
C251        O257   1.260       .  A
C251       C1070   1.478       .  S
C255        C641   1.486       .  S
In258       O260   2.249       .  S
In258       O261   2.260       .  S
In258       O269   2.260       .  S
In258       O263   2.248       .  S
In258       O265   2.258       .  S
In258       O266   2.262       .  S
In258       O267   2.240       .  S
In258       O270   2.230       .  S
C259        O265   1.262       .  A
C259        O267   1.260       .  A
C259        C690   1.486       .  S
O260        C268   1.259       .  A
O261        C268   1.260       .  A
C262        O269   1.260       .  A
C262        O263   1.259       .  A
C262        C850   1.481       .  S
C264        O266   1.263       .  A
C264        O270   1.260       .  A
C264       C1110   1.490       .  S
C268        C621   1.484       .  S
In271       O273   2.254       .  S
In271       O274   2.247       .  S
In271       O282   2.265       .  S
In271       O276   2.225       .  S
In271       O278   2.249       .  S
In271       O279   2.260       .  S
In271       O280   2.234       .  S
In271       O283   2.241       .  S
C272        O278   1.259       .  A
C272        O280   1.259       .  A
C272        C610   1.469       .  S
O273        C281   1.260       .  A
O274        C281   1.260       .  A
C275        O282   1.262       .  A
C275        O276   1.258       .  A
C275        C670   1.478       .  S
C277        O279   1.261       .  A
C277        O283   1.257       .  A
C277       C1001   1.476       .  S
C281        C590   1.482       .  S
In284       O286   2.262       .  S
In284       O287   2.253       .  S
In284       O295   2.254       .  S
In284       O289   2.264       .  S
In284       O291   2.260   1_545  S
In284       O292   2.255       .  S
In284       O293   2.225       .  S
In284       O296   2.244   1_545  S
C285        O291   1.265       .  A
C285        O293   1.258   1_565  A
C285        C601   1.477       .  S
O286        C294   1.263       .  A
O287        C294   1.261       .  A
C288        O295   1.260       .  A
C288        O289   1.262       .  A
C288        C741   1.489       .  S
C290        O292   1.264   1_565  A
C290        O296   1.258       .  A
C290        C970   1.489       .  S
C294        C561   1.494       .  S
In297       O299   2.226       .  S
In297       O300   2.267       .  S
In297       O308   2.264       .  S
In297       O302   2.258       .  S
In297       O304   2.249       .  S
In297       O305   2.260       .  S
In297       O306   2.233       .  S
In297       O309   2.251       .  S
C298        O304   1.262       .  A
C298        O306   1.261       .  A
C298        C550   1.475       .  S
O299        C307   1.258       .  A
O300        C307   1.262       .  A
C301        O308   1.259       .  A
C301        O302   1.258       .  A
C301        C530   1.489       .  S
C303        O305   1.261       .  A
C303        O309   1.259       .  A
C303        C630   1.484       .  S
C307       C1650   1.474       .  S
In310       O312   2.238       .  S
In310       O313   2.259       .  S
In310       O321   2.261       .  S
In310       O315   2.228       .  S
In310       O317   2.251       .  S
In310       O318   2.256       .  S
In310       O319   2.234       .  S
In310       O322   2.237       .  S
C311        O317   1.261       .  A
C311        O319   1.260       .  A
C311        C541   1.477       .  S
O312        C320   1.259       .  A
O313        C320   1.261       .  A
C314        O321   1.261       .  A
C314        O315   1.258       .  A
C314        C501   1.475       .  S
C316        O318   1.261       .  A
C316        O322   1.259       .  A
C316        C650   1.477       .  S
C320       C1570   1.483       .  S
In323       O325   2.239       .  S
In323       O326   2.267       .  S
In323       O334   2.243       .  S
In323       O328   2.253       .  S
In323       O330   2.250       .  S
In323       O331   2.252       .  S
In323       O332   2.223       .  S
In323       O335   2.252       .  S
C324        O330   1.266       .  A
C324        O332   1.261       .  A
C324        C481   1.484       .  S
O325        C333   1.258       .  A
O326        C333   1.266       .  A
C327        O334   1.260       .  A
C327        O328   1.263       .  A
C327        C521   1.483       .  S
C329        O331   1.265       .  A
C329        O335   1.262       .  A
C329        C570   1.488       .  S
C333       C1441   1.493       .  S
In336       O338   2.235       .  S
In336       O339   2.276       .  S
In336       O347   2.264       .  S
In336       O341   2.241       .  S
In336       O343   2.248       .  S
In336       O344   2.241   1_545  S
In336       O345   2.238       .  S
In336       O348   2.256   1_545  S
C337        O343   1.262       .  A
C337        O345   1.259       .  A
C337        C490   1.479       .  S
O338        C346   1.258       .  A
O339        C346   1.263       .  A
C340        O347   1.262       .  A
C340        O341   1.259       .  A
C340        C470   1.478       .  S
C342        O344   1.260       .  A
C342        O348   1.259       .  A
C342        C581   1.485       .  S
C346       C1530   1.478       .  S
In349       O351   2.215       .  S
In349       O352   2.254       .  S
In349       O360   2.244       .  S
In349       O354   2.247       .  S
In349       O356   2.244       .  S
In349       O357   2.244   1_455  S
In349       O358   2.237       .  S
In349       O361   2.246   1_455  S
C350        O356   1.261       .  A
C350        O358   1.260       .  A
C350        C450   1.477       .  S
O351        C359   1.258       .  A
O352        C359   1.263       .  A
C353        O360   1.258       .  A
C353        O354   1.260       .  A
C353        C430   1.482       .  S
C355        O357   1.260       .  A
C355        O361   1.261       .  A
C355        C721   1.483       .  S
C359       C1430   1.476       .  S
In362       O364   2.234       .  S
In362       O365   2.261       .  S
In362       O373   2.255       .  S
In362       O367   2.256       .  S
In362       O369   2.243       .  S
In362       O370   2.249   1_545  S
In362       O371   2.235       .  S
In362       O374   2.257   1_545  S
C363        O369   1.262       .  A
C363        O371   1.260       .  A
C363        C441   1.478       .  S
O364        C372   1.259       .  A
O365        C372   1.263       .  A
C366        O373   1.261       .  A
C366        O367   1.259       .  A
C366        C461   1.487       .  S
C368        O370   1.260       .  A
C368        O374   1.260       .  A
C368        C710   1.488       .  S
C372       C1350   1.486       .  S
In375       O377   2.242       .  S
In375       O378   2.272       .  S
In375       O386   2.267       .  S
In375       O380   2.239       .  S
In375       O382   2.248       .  S
In375       O383   2.253       .  S
In375       O384   2.232       .  S
In375       O387   2.247       .  S
C376        O382   1.262       .  A
C376        O384   1.259       .  A
C376        C401   1.480       .  S
O377        C385   1.257       .  A
O378        C385   1.263       .  A
C379        O386   1.262       .  A
C379        O380   1.259       .  A
C379        C510   1.488       .  S
C381        O383   1.264       .  A
C381        O387   1.261       .  A
C381        C781   1.487       .  S
C385       C1330   1.487       .  S
In388       O390   2.222       .  S
In388       O391   2.243       .  S
In388       O399   2.241       .  S
In388       O393   2.242       .  S
In388       O395   2.240       .  S
In388       O396   2.255       .  S
In388       O397   2.236       .  S
In388       O400   2.240   1_455  S
C389        O395   1.263       .  A
C389        O397   1.261       .  A
C389        C410   1.477       .  S
O390        C398   1.259       .  A
O391        C398   1.266       .  A
C392        O399   1.259       .  A
C392        O393   1.260       .  A
C392        C421   1.483       .  S
C394        O396   1.261   1_655  A
C394        O400   1.259       .  A
C394        C821   1.484       .  S
C398       C1290   1.479       .  S
C401        C402   1.415       .  A
C401        C406   1.413       .  A
C402        C403   1.406       .  A
C402       Br414   1.932       .  S
C403        C404   1.406       .  A
C403       Br418   1.930       .  S
C404        C407   1.483       .  S
C404        C405   1.409   1_554  A
C405        C406   1.408   1_556  A
C405       Br413   1.930       .  S
C406       Br417   1.932   1_554  S
C407        C408   1.408       .  A
C407        C412   1.407       .  A
C408        C409   1.407       .  A
C408       Br419   1.929       .  S
C409        C410   1.414   1_554  A
C409       Br415   1.934   1_554  S
C410        C411   1.412       .  A
C411        C412   1.406   1_556  A
C411       Br420   1.927       .  S
C412       Br416   1.930       .  S
C421        C422   1.417   1_556  A
C421        C426   1.416       .  A
C422        C423   1.406       .  A
C422       Br434   1.934       .  S
C423        C424   1.406       .  A
C423       Br438   1.933       .  S
C424        C427   1.481       .  S
C424        C425   1.406   1_554  A
C425        C426   1.408       .  A
C425       Br433   1.930   1_455  S
C426       Br437   1.932   1_455  S
C427        C428   1.406   1_554  A
C427        C432   1.408       .  A
C428        C429   1.405   1_556  A
C428       Br439   1.931       .  S
C429        C430   1.415       .  A
C429       Br435   1.932   1_554  S
C430        C431   1.415       .  A
C431        C432   1.408       .  A
C431       Br440   1.932   1_455  S
C432       Br436   1.931   1_455  S
C441        C442   1.414       .  A
C441        C446   1.414       .  A
C442        C443   1.406       .  A
C442       Br454   1.932       .  S
C443        C444   1.407       .  A
C443       Br458   1.931       .  S
C444        C447   1.479   1_556  S
C444        C445   1.406       .  A
C445        C446   1.406       .  A
C445       Br453   1.931   1_556  S
C446       Br457   1.931       .  S
C447        C448   1.407   1_554  A
C447        C452   1.406       .  A
C448        C449   1.406       .  A
C448       Br459   1.931       .  S
C449        C450   1.413   1_556  A
C449       Br455   1.931       .  S
C450        C451   1.414       .  A
C451        C452   1.405       .  A
C451       Br460   1.933       .  S
C452       Br456   1.931       .  S
C461        C462   1.415       .  A
C461        C466   1.415   1_556  A
C462        C463   1.408       .  A
C462       Br474   1.931       .  S
C463        C464   1.407   1_556  A
C463       Br478   1.930       .  S
C464        C467   1.489       .  S
C464        C465   1.410       .  A
C465        C466   1.412       .  A
C465       Br473   1.930   1_545  S
C466       Br477   1.931       .  S
C467        C468   1.411   1_545  A
C467        C472   1.409       .  A
C468        C469   1.411       .  A
C468       Br479   1.929   1_554  S
C469        C470   1.410   1_565  A
C469       Br475   1.929       .  S
C470        C471   1.409       .  A
C471        C472   1.407       .  A
C471       Br480   1.930       .  S
C472       Br476   1.929       .  S
C481        C482   1.414   1_556  A
C481        C486   1.417       .  A
C482        C483   1.410       .  A
C482       Br494   1.931       .  S
C483        C484   1.410   1_554  A
C483       Br498   1.929       .  S
C484        C487   1.486       .  S
C484        C485   1.406       .  A
C485        C486   1.406       .  A
C485       Br493   1.930       .  S
C486       Br497   1.934       .  S
C487        C488   1.408   1_556  A
C487        C492   1.409       .  A
C488        C489   1.408       .  A
C488       Br499   1.929       .  S
C489        C490   1.413       .  A
C489       Br495   1.932       .  S
C490        C491   1.413       .  A
C491        C492   1.407   1_554  A
C491       Br500   1.933       .  S
C492       Br496   1.930       .  S
C501        C502   1.409       .  A
C501        C506   1.410       .  A
C502        C503   1.404       .  A
C502       Br514   1.932       .  S
C503        C504   1.409       .  A
C503       Br518   1.931       .  S
C504        C507   1.488       .  S
C504        C505   1.411       .  A
C505        C506   1.411       .  A
C505       Br513   1.926       .  S
C506       Br517   1.930       .  S
C507        C508   1.407       .  A
C507        C512   1.409   1_556  A
C508        C509   1.409       .  A
C508       Br519   1.930       .  S
C509        C510   1.416   1_556  A
C509       Br515   1.932       .  S
C510        C511   1.416       .  A
C511        C512   1.411       .  A
C511       Br520   1.931       .  S
C512       Br516   1.931       .  S
C521        C522   1.411       .  A
C521        C526   1.413       .  A
C522        C523   1.410       .  A
C522       Br534   1.931   1_556  S
C523        C524   1.412       .  A
C523       Br538   1.930   1_556  S
C524        C527   1.493       .  S
C524        C525   1.411       .  A
C525        C526   1.409       .  A
C525       Br533   1.931       .  S
C526       Br537   1.932       .  S
C527        C528   1.410   1_556  A
C527        C532   1.410       .  A
C528        C529   1.409       .  A
C528       Br539   1.933       .  S
C529        C530   1.416       .  A
C529       Br535   1.933       .  S
C530        C531   1.416   1_554  A
C531        C532   1.412       .  A
C531       Br540   1.931       .  S
C532       Br536   1.931       .  S
C541        C542   1.413       .  A
C541        C546   1.412       .  A
C542        C543   1.408       .  A
C542       Br554   1.931   1_556  S
C543        C544   1.409       .  A
C543       Br558   1.931   1_556  S
C544        C547   1.482       .  S
C544        C545   1.407       .  A
C545        C546   1.405       .  A
C545       Br553   1.930       .  S
C546       Br557   1.933       .  S
C547        C548   1.408       .  A
C547        C552   1.408       .  A
C548        C549   1.406       .  A
C548       Br559   1.930       .  S
C549        C550   1.410   1_556  A
C549       Br555   1.931       .  S
C550        C551   1.413   1_554  A
C551        C552   1.407       .  A
C551       Br560   1.932   1_556  S
C552       Br556   1.931       .  S
C561        C562   1.419       .  A
C561        C566   1.416       .  A
C562        C563   1.411       .  A
C562       Br574   1.934       .  S
C563        C564   1.409       .  A
C563       Br578   1.933       .  S
C564        C567   1.494       .  S
C564        C565   1.408       .  A
C565        C566   1.413       .  A
C565       Br573   1.928       .  S
C566       Br577   1.929       .  S
C567        C568   1.409       .  A
C567        C572   1.410       .  A
C568        C569   1.411       .  A
C568       Br579   1.927       .  S
C569        C570   1.412       .  A
C569       Br575   1.930       .  S
C570        C571   1.416       .  A
C571        C572   1.411       .  A
C571       Br580   1.932       .  S
C572       Br576   1.931       .  S
C581        C582   1.417       .  A
C581        C586   1.413       .  A
C582        C583   1.409       .  A
C582       Br594   1.932   1_554  S
C583        C584   1.408       .  A
C583       Br598   1.932   1_554  S
C584        C587   1.485       .  S
C584        C585   1.407       .  A
C585        C586   1.407       .  A
C585       Br593   1.929       .  S
C586       Br597   1.931       .  S
C587        C588   1.407       .  A
C587        C592   1.408       .  A
C588        C589   1.410       .  A
C588       Br599   1.929       .  S
C589        C590   1.413       .  A
C589       Br595   1.929       .  S
C590        C591   1.415       .  A
C591        C592   1.407       .  A
C591       Br600   1.933       .  S
C592       Br596   1.932       .  S
C601        C602   1.416       .  A
C601        C606   1.410       .  A
C602        C603   1.405       .  A
C602       Br614   1.934       .  S
C603        C604   1.405       .  A
C603       Br618   1.931       .  S
C604        C607   1.481       .  S
C604        C605   1.410   1_556  A
C605        C606   1.408   1_554  A
C605       Br613   1.931       .  S
C606       Br617   1.929   1_556  S
C607        C608   1.408       .  A
C607        C612   1.409       .  A
C608        C609   1.405       .  A
C608       Br619   1.928       .  S
C609        C610   1.407   1_556  A
C609       Br615   1.930       .  S
C610        C611   1.410       .  A
C611        C612   1.406   1_554  A
C611       Br620   1.931       .  S
C612       Br616   1.929       .  S
C621        C622   1.414       .  A
C621        C626   1.413       .  A
C622        C623   1.408       .  A
C622       Br634   1.933       .  S
C623        C624   1.409       .  A
C623       Br638   1.930       .  S
C624        C627   1.490       .  S
C624        C625   1.410       .  A
C625        C626   1.411       .  A
C625       Br633   1.929       .  S
C626       Br637   1.930       .  S
C627        C628   1.409       .  A
C627        C632   1.410       .  A
C628        C629   1.409       .  A
C628       Br639   1.931       .  S
C629        C630   1.414       .  A
C629       Br635   1.932       .  S
C630        C631   1.413       .  A
C631        C632   1.411       .  A
C631       Br640   1.930   1_554  S
C632       Br636   1.928   1_554  S
C641        C642   1.416       .  A
C641        C646   1.415       .  A
C642        C643   1.408       .  A
C642       Br654   1.933       .  S
C643        C644   1.407       .  A
C643       Br658   1.931       .  S
C644        C647   1.487       .  S
C644        C645   1.408       .  A
C645        C646   1.410       .  A
C645       Br653   1.930       .  S
C646       Br657   1.931       .  S
C647        C648   1.410       .  A
C647        C652   1.409       .  A
C648        C649   1.410       .  A
C648       Br659   1.928       .  S
C649        C650   1.410       .  A
C649       Br655   1.929       .  S
C650        C651   1.412       .  A
C651        C652   1.406       .  A
C651       Br660   1.934       .  S
C652       Br656   1.930       .  S
C661        C662   1.417       .  A
C661        C666   1.415   1_556  A
C662        C663   1.409       .  A
C662       Br674   1.931       .  S
C663        C664   1.407       .  A
C663       Br678   1.931       .  S
C664        C667   1.485   1_556  S
C664        C665   1.408   1_556  A
C665        C666   1.408       .  A
C665       Br673   1.930       .  S
C666       Br677   1.933       .  S
C667        C668   1.408       .  A
C667        C672   1.409       .  A
C668        C669   1.405       .  A
C668       Br679   1.931   1_554  S
C669        C670   1.413       .  A
C669       Br675   1.934       .  S
C670        C671   1.411       .  A
C671        C672   1.410       .  A
C671       Br680   1.929       .  S
C672       Br676   1.928       .  S
C681        C682   1.417       .  A
C681        C686   1.420       .  A
C682        C683   1.410   1_556  A
C682       Br694   1.933   1_556  S
C683        C684   1.408   1_554  A
C683       Br698   1.930       .  S
C684        C687   1.486   1_556  S
C684        C685   1.406       .  A
C685        C686   1.407       .  A
C685       Br693   1.932       .  S
C686       Br697   1.933       .  S
C687        C688   1.408   1_554  A
C687        C692   1.407       .  A
C688        C689   1.410   1_556  A
C688       Br699   1.931       .  S
C689        C690   1.416       .  A
C689       Br695   1.931   1_554  S
C690        C691   1.415       .  A
C691        C692   1.408       .  A
C691       Br700   1.932       .  S
C692       Br696   1.931       .  S
C701        C702   1.416       .  A
C701        C706   1.414       .  A
C702        C703   1.409       .  A
C702       Br714   1.934       .  S
C703        C704   1.409       .  A
C703       Br718   1.931       .  S
C704        C707   1.490       .  S
C704        C705   1.409       .  A
C705        C706   1.411       .  A
C705       Br713   1.929       .  S
C706       Br717   1.929       .  S
C707        C708   1.408       .  A
C707        C712   1.409       .  A
C708        C709   1.410       .  A
C708       Br719   1.928       .  S
C709        C710   1.415       .  A
C709       Br715   1.931       .  S
C710        C711   1.416       .  A
C711        C712   1.410       .  A
C711       Br720   1.931   1_556  S
C712       Br716   1.931       .  S
C721        C722   1.413       .  A
C721        C726   1.416       .  A
C722        C723   1.409       .  A
C722       Br734   1.930       .  S
C723        C724   1.408       .  A
C723       Br738   1.930       .  S
C724        C727   1.487       .  S
C724        C725   1.409       .  A
C725        C726   1.408       .  A
C725       Br733   1.931       .  S
C726       Br737   1.934       .  S
C727        C728   1.408       .  A
C727        C732   1.408       .  A
C728        C729   1.408       .  A
C728       Br739   1.933       .  S
C729        C730   1.416       .  A
C729       Br735   1.932       .  S
C730        C731   1.414       .  A
C731        C732   1.410       .  A
C731       Br740   1.929       .  S
C732       Br736   1.929       .  S
C741        C742   1.412   1_556  A
C741        C746   1.415       .  A
C742        C743   1.413       .  A
C742       Br754   1.930       .  S
C743        C744   1.412   1_554  A
C743       Br758   1.928       .  S
C744        C747   1.496   1_556  S
C744        C745   1.410       .  A
C745        C746   1.411       .  A
C745       Br753   1.931   1_545  S
C746       Br757   1.931   1_545  S
C747        C748   1.412   1_554  A
C747        C752   1.411       .  A
C748        C749   1.413   1_556  A
C748       Br759   1.929       .  S
C749        C750   1.411       .  A
C749       Br755   1.927   1_554  S
C750        C751   1.413       .  A
C751        C752   1.412       .  A
C751       Br760   1.930   1_545  S
C752       Br756   1.930   1_545  S
C761        C762   1.416       .  A
C761        C766   1.416       .  A
C762        C763   1.409   1_556  A
C762       Br774   1.932       .  S
C763        C764   1.408   1_554  A
C763       Br778   1.931       .  S
C764        C767   1.482   1_556  S
C764        C765   1.405       .  A
C765        C766   1.405       .  A
C765       Br773   1.931       .  S
C766       Br777   1.933   1_655  S
C767        C768   1.407   1_554  A
C767        C772   1.404       .  A
C768        C769   1.409       .  A
C768       Br779   1.931       .  S
C769        C770   1.415   1_556  A
C769       Br775   1.930       .  S
C770        C771   1.422       .  A
C771        C772   1.406       .  A
C771       Br780   1.937       .  S
C772       Br776   1.933       .  S
C781        C782   1.412       .  A
C781        C786   1.417       .  A
C782        C783   1.410       .  A
C782       Br794   1.930       .  S
C783        C784   1.409       .  A
C783       Br798   1.929       .  S
C784        C787   1.491       .  S
C784        C785   1.409       .  A
C785        C786   1.411       .  A
C785       Br793   1.931       .  S
C786       Br797   1.933       .  S
C787        C788   1.408       .  A
C787        C792   1.409       .  A
C788        C789   1.409       .  A
C788       Br799   1.932       .  S
C789        C790   1.416       .  A
C789       Br795   1.933       .  S
C790        C791   1.414       .  A
C791        C792   1.413       .  A
C791       Br800   1.929       .  S
C792       Br796   1.928       .  S
C801        C802   1.415       .  A
C801        C806   1.413       .  A
C802        C803   1.412       .  A
C802       Br814   1.930       .  S
C803        C804   1.410       .  A
C803       Br818   1.930       .  S
C804        C807   1.495   1_554  S
C804        C805   1.410   1_554  A
C805        C806   1.412   1_556  A
C805       Br813   1.928       .  S
C806       Br817   1.929   1_554  S
C807        C808   1.410       .  A
C807        C812   1.413       .  A
C808        C809   1.409       .  A
C808       Br819   1.928   1_455  S
C809        C810   1.408       .  A
C809       Br815   1.930   1_455  S
C810        C811   1.410       .  A
C811        C812   1.414       .  A
C811       Br820   1.927       .  S
C812       Br816   1.928   1_556  S
C821        C822   1.416       .  A
C821        C826   1.414       .  A
C822        C823   1.405       .  A
C822       Br834   1.930   1_556  S
C823        C824   1.407       .  A
C823       Br838   1.935       .  S
C824        C827   1.484       .  S
C824        C825   1.408       .  A
C825        C826   1.410       .  A
C825       Br833   1.929       .  S
C826       Br837   1.930       .  S
C827        C828   1.408       .  A
C827        C832   1.408       .  A
C828        C829   1.408       .  A
C828       Br839   1.929       .  S
C829        C830   1.412       .  A
C829       Br835   1.929       .  S
C830        C831   1.417       .  A
C831        C832   1.407       .  A
C831       Br840   1.933       .  S
C832       Br836   1.934       .  S
C841        C842   1.412       .  A
C841        C846   1.412       .  A
C842        C843   1.406       .  A
C842       Br854   1.932       .  S
C843        C844   1.409       .  A
C843       Br858   1.933       .  S
C844        C847   1.488   1_556  S
C844        C845   1.411       .  A
C845        C846   1.411       .  A
C845       Br853   1.928       .  S
C846       Br857   1.929       .  S
C847        C848   1.410       .  A
C847        C852   1.410   1_554  A
C848        C849   1.407       .  A
C848       Br859   1.932       .  S
C849        C850   1.411       .  A
C849       Br855   1.930       .  S
C850        C851   1.412   1_554  A
C851        C852   1.410       .  A
C851       Br860   1.931       .  S
C852       Br856   1.929       .  S
C861        C862   1.411       .  A
C861        C866   1.412   1_556  A
C862        C863   1.407   1_556  A
C862       Br874   1.929       .  S
C863        C864   1.407       .  A
C863       Br878   1.930       .  S
C864        C867   1.482       .  S
C864        C865   1.409       .  A
C865        C866   1.408       .  A
C865       Br873   1.931       .  S
C866       Br877   1.930   1_554  S
C867        C868   1.406       .  A
C867        C872   1.408       .  A
C868        C869   1.407       .  A
C868       Br879   1.931       .  S
C869        C870   1.417       .  A
C869       Br875   1.932       .  S
C870        C871   1.411       .  A
C871        C872   1.407       .  A
C871       Br880   1.930   1_554  S
C872       Br876   1.930   1_554  S
C881        C882   1.422       .  A
C881        C886   1.428       .  A
C882        C883   1.412       .  A
C882       Br894   1.924       .  S
C883        C884   1.405       .  A
C883       Br898   1.928       .  S
C884        C887   1.490       .  S
C884        C885   1.403       .  A
C885        C886   1.407       .  A
C885       Br893   1.936       .  S
C886       Br897   1.925       .  S
C887        C888   1.411       .  A
C887        C892   1.410       .  A
C888        C889   1.411       .  A
C888       Br899   1.927       .  S
C889        C890   1.409       .  A
C889       Br895   1.928   1_655  S
C890        C891   1.411       .  A
C891        C892   1.407       .  A
C891       Br900   1.932       .  S
C892       Br896   1.931       .  S
C901        C902   1.423       .  A
C901        C906   1.417       .  A
C902        C903   1.415       .  A
C902       Br914   1.926       .  S
C903        C904   1.408       .  A
C903       Br918   1.933       .  S
C904        C907   1.499       .  S
C904        C905   1.408       .  A
C905        C906   1.412       .  A
C905       Br913   1.930       .  S
C906       Br917   1.923       .  S
C907        C908   1.409       .  A
C907        C912   1.406       .  A
C908        C909   1.414       .  A
C908       Br919   1.933       .  S
C909        C910   1.420       .  A
C909       Br915   1.922       .  S
C910        C911   1.424       .  A
C911        C912   1.414       .  A
C911       Br920   1.922       .  S
C912       Br916   1.933       .  S
C921        C922   1.413       .  A
C921        C926   1.418       .  A
C922        C923   1.412       .  A
C922       Br934   1.931       .  S
C923        C924   1.410       .  A
C923       Br938   1.929       .  S
C924        C927   1.491       .  S
C924        C925   1.408       .  A
C925        C926   1.408       .  A
C925       Br933   1.933       .  S
C926       Br937   1.931       .  S
C927        C928   1.407       .  A
C927        C932   1.405       .  A
C928        C929   1.415       .  A
C928       Br939   1.931       .  S
C929        C930   1.423       .  A
C929       Br935   1.923       .  S
C930        C931   1.428       .  A
C931        C932   1.407       .  A
C931       Br940   1.931       .  S
C932       Br936   1.936       .  S
C941        C942   1.407       .  A
C941        C946   1.414       .  A
C942        C943   1.403       .  A
C942       Br954   1.927       .  S
C943        C944   1.407       .  A
C943       Br958   1.928       .  S
C944        C947   1.474       .  S
C944        C945   1.407       .  A
C945        C946   1.403       .  A
C945       Br953   1.932       .  S
C946       Br957   1.935       .  S
C947        C948   1.396       .  A
C947        C952   1.400       .  A
C948        C949   1.402       .  A
C948       Br959   1.940       .  S
C949        C950   1.434       .  A
C949       Br955   1.932       .  S
C950        C951   1.431       .  A
C951        C952   1.409       .  A
C951       Br960   1.931       .  S
C952       Br956   1.934       .  S
C961        C962   1.418       .  A
C961        C966   1.426       .  A
C962        C963   1.410       .  A
C962       Br974   1.923       .  S
C963        C964   1.407       .  A
C963       Br978   1.930       .  S
C964        C967   1.485       .  S
C964        C965   1.404       .  A
C965        C966   1.405       .  A
C965       Br973   1.932       .  S
C966       Br977   1.937       .  S
C967        C968   1.406       .  A
C967        C972   1.407       .  A
C968        C969   1.408       .  A
C968       Br979   1.931       .  S
C969        C970   1.417       .  A
C969       Br975   1.932   1_565  S
C970        C971   1.418       .  A
C971        C972   1.409       .  A
C971       Br980   1.932       .  S
C972       Br976   1.933       .  S
C981        C982   1.414       .  A
C981        C986   1.423       .  A
C982        C983   1.409       .  A
C982       Br994   1.927       .  S
C983        C984   1.406       .  A
C983       Br998   1.930       .  S
C984        C987   1.481       .  S
C984        C985   1.404       .  A
C985        C986   1.406       .  A
C985       Br993   1.934       .  S
C986       Br997   1.934       .  S
C987        C988   1.402       .  A
C987        C992   1.403       .  A
C988        C989   1.409       .  A
C988       Br999   1.934       .  S
C989        C990   1.427       .  A
C989       Br995   1.931       .  S
C990        C991   1.422       .  A
C991        C992   1.406       .  A
C991      Br1000   1.924       .  S
C992       Br996   1.933       .  S
C1001      C1002   1.411       .  A
C1001      C1006   1.409       .  A
C1002      C1003   1.410       .  A
C1002     Br1014   1.930       .  S
C1003      C1004   1.409       .  A
C1003     Br1018   1.928       .  S
C1004      C1007   1.489       .  S
C1004      C1005   1.411       .  A
C1005      C1006   1.407       .  A
C1005     Br1013   1.931       .  S
C1006     Br1017   1.931       .  S
C1007      C1008   1.401       .  A
C1007      C1012   1.398       .  A
C1008      C1009   1.412       .  A
C1008     Br1019   1.934       .  S
C1009      C1010   1.430       .  A
C1009     Br1015   1.925       .  S
C1010      C1011   1.442       .  A
C1011      C1012   1.411       .  A
C1011     Br1020   1.939       .  S
C1012     Br1016   1.939       .  S
C1021      C1022   1.420       .  A
C1021      C1026   1.414       .  A
C1022      C1023   1.415       .  A
C1022     Br1034   1.924       .  S
C1023      C1024   1.409       .  A
C1023     Br1038   1.930       .  S
C1024      C1027   1.491       .  S
C1024      C1025   1.404       .  A
C1025      C1026   1.405       .  A
C1025     Br1033   1.935       .  S
C1026     Br1037   1.908       .  S
C1027      C1028   1.408       .  A
C1027      C1032   1.407       .  A
C1028      C1029   1.414       .  A
C1028     Br1039   1.932       .  S
C1029      C1030   1.419       .  A
C1029     Br1035   1.923       .  S
C1030      C1031   1.422       .  A
C1031      C1032   1.407       .  A
C1031     Br1040   1.938       .  S
C1032     Br1036   1.933       .  S
C1041      C1042   1.416       .  A
C1041      C1046   1.423       .  A
C1042      C1043   1.411       .  A
C1042     Br1054   1.922       .  S
C1043      C1044   1.409       .  A
C1043     Br1058   1.932       .  S
C1044      C1047   1.481       .  S
C1044      C1045   1.401       .  A
C1045      C1046   1.402       .  A
C1045     Br1053   1.934       .  S
C1046     Br1057   1.929       .  S
C1047      C1048   1.399       .  A
C1047      C1052   1.401       .  A
C1048      C1049   1.407       .  A
C1048     Br1059   1.938       .  S
C1049      C1050   1.432       .  A
C1049     Br1055   1.926       .  S
C1050      C1051   1.425       .  A
C1051      C1052   1.409       .  A
C1051     Br1060   1.923       .  S
C1052     Br1056   1.934       .  S
C1061      C1062   1.430       .  A
C1061      C1066   1.431       .  A
C1062      C1063   1.406       .  A
C1062     Br1074   1.933       .  S
C1063      C1064   1.402       .  A
C1063     Br1078   1.937       .  S
C1064      C1067   1.483       .  S
C1064      C1065   1.401       .  A
C1065      C1066   1.410       .  A
C1065     Br1073   1.933       .  S
C1066     Br1077   1.935       .  S
C1067      C1068   1.406       .  A
C1067      C1072   1.410       .  A
C1068      C1069   1.408       .  A
C1068     Br1079   1.930       .  S
C1069      C1070   1.416       .  A
C1069     Br1075   1.931       .  S
C1070      C1071   1.411       .  A
C1071      C1072   1.406       .  A
C1071     Br1080   1.932       .  S
C1072     Br1076   1.932       .  S
C1081      C1082   1.420       .  A
C1081      C1086   1.428       .  A
C1082      C1083   1.408       .  A
C1082     Br1094   1.929       .  S
C1083      C1084   1.407       .  A
C1083     Br1098   1.936       .  S
C1084      C1087   1.488       .  S
C1084      C1085   1.406       .  A
C1085      C1086   1.411       .  A
C1085     Br1093   1.933       .  S
C1086     Br1097   1.936       .  S
C1087      C1088   1.406       .  A
C1087      C1092   1.414       .  A
C1088      C1089   1.403       .  A
C1088     Br1099   1.935       .  S
C1089      C1090   1.409       .  A
C1089     Br1095   1.909       .  S
C1090      C1091   1.410       .  A
C1091      C1092   1.412       .  A
C1091     Br1100   1.928       .  S
C1092     Br1096   1.928       .  S
C1101      C1102   1.428       .  A
C1101      C1106   1.422       .  A
C1102      C1103   1.416       .  A
C1102     Br1114   1.934       .  S
C1103      C1104   1.408       .  A
C1103     Br1118   1.931       .  S
C1104      C1107   1.491       .  S
C1104      C1105   1.402       .  A
C1105      C1106   1.407       .  A
C1105     Br1113   1.933       .  S
C1106     Br1117   1.917       .  S
C1107      C1108   1.410       .  A
C1107      C1112   1.408       .  A
C1108      C1109   1.413       .  A
C1108     Br1119   1.931       .  S
C1109      C1110   1.419       .  A
C1109     Br1115   1.932       .  S
C1110      C1111   1.415       .  A
C1111      C1112   1.407       .  A
C1111     Br1120   1.934       .  S
C1112     Br1116   1.931       .  S
C1121      C1122   1.418       .  A
C1121      C1126   1.415       .  A
C1122      C1123   1.413       .  A
C1122     Br1134   1.931       .  S
C1123      C1124   1.409       .  A
C1123     Br1138   1.929       .  S
C1124      C1127   1.483       .  S
C1124      C1125   1.403       .  A
C1125      C1126   1.401       .  A
C1125     Br1133   1.939       .  S
C1126     Br1137   1.910       .  S
C1127      C1128   1.407       .  A
C1127      C1132   1.403       .  A
C1128      C1129   1.413       .  A
C1128     Br1139   1.935       .  S
C1129      C1130   1.423       .  A
C1129     Br1135   1.924       .  S
C1130      C1131   1.420       .  A
C1131      C1132   1.402       .  A
C1131     Br1140   1.927       .  S
C1132     Br1136   1.935       .  S
C1141      C1142   1.418       .  A
C1141      C1146   1.408       .  A
C1142      C1143   1.400       .  A
C1142     Br1154   1.933       .  S
C1143      C1144   1.405       .  A
C1143     Br1158   1.935       .  S
C1144      C1147   1.480       .  S
C1144      C1145   1.410       .  A
C1145      C1146   1.409       .  A
C1145     Br1153   1.928       .  S
C1146     Br1157   1.929       .  S
C1147      C1148   1.404       .  A
C1147      C1152   1.401       .  A
C1148      C1149   1.412       .  A
C1148     Br1159   1.936       .  S
C1149      C1150   1.430       .  A
C1149     Br1155   1.935       .  S
C1150      C1151   1.422       .  A
C1151      C1152   1.405       .  A
C1151     Br1160   1.923       .  S
C1152     Br1156   1.937       .  S
C1161      C1162   1.431       .  A
C1161      C1166   1.430       .  A
C1162      C1163   1.408       .  A
C1162     Br1174   1.935       .  S
C1163      C1164   1.402       .  A
C1163     Br1178   1.937       .  S
C1164      C1167   1.478       .  S
C1164      C1165   1.399       .  A
C1165      C1166   1.404       .  A
C1165     Br1173   1.935       .  S
C1166     Br1177   1.932       .  S
C1167      C1168   1.406       .  A
C1167      C1172   1.411       .  A
C1168      C1169   1.406       .  A
C1168     Br1179   1.927       .  S
C1169      C1170   1.412       .  A
C1169     Br1175   1.932       .  S
C1170      C1171   1.409       .  A
C1171      C1172   1.403       .  A
C1171     Br1180   1.931       .  S
C1172     Br1176   1.934       .  S
C1181      C1182   1.419       .  A
C1181      C1186   1.423       .  A
C1182      C1183   1.406       .  A
C1182     Br1194   1.922       .  S
C1183      C1184   1.405       .  A
C1183     Br1198   1.933       .  S
C1184      C1187   1.483       .  S
C1184      C1185   1.405       .  A
C1185      C1186   1.406       .  A
C1185     Br1193   1.932       .  S
C1186     Br1197   1.934       .  S
C1187      C1188   1.410       .  A
C1187      C1192   1.406       .  A
C1188      C1189   1.404       .  A
C1188     Br1199   1.927       .  S
C1189      C1190   1.406       .  A
C1189     Br1195   1.928       .  S
C1190      C1191   1.420       .  A
C1191      C1192   1.407       .  A
C1191     Br1200   1.930       .  S
C1192     Br1196   1.934       .  S
C1201      C1202   1.419       .  A
C1201      C1206   1.414       .  A
C1202      C1203   1.409       .  A
C1202     Br1214   1.921       .  S
C1203      C1204   1.405       .  A
C1203     Br1218   1.933       .  S
C1204      C1207   1.479       .  S
C1204      C1205   1.401       .  A
C1205      C1206   1.401       .  A
C1205     Br1213   1.936       .  S
C1206     Br1217   1.906       .  S
C1207      C1208   1.402       .  A
C1207      C1212   1.402       .  A
C1208      C1209   1.408       .  A
C1208     Br1219   1.938       .  S
C1209      C1210   1.425       .  A
C1209     Br1215   1.917       .  S
C1210      C1211   1.419       .  A
C1211      C1212   1.405       .  A
C1211     Br1220   1.922       .  S
C1212     Br1216   1.933       .  S
C1221      C1222   1.411       .  A
C1221      C1226   1.407       .  A
C1222      C1223   1.405       .  A
C1222     Br1234   1.930       .  S
C1223      C1224   1.412       .  A
C1223     Br1238   1.934       .  S
C1224      C1227   1.491       .  S
C1224      C1225   1.413       .  A
C1225      C1226   1.410       .  A
C1225     Br1233   1.929       .  S
C1226     Br1237   1.925       .  S
C1227      C1228   1.406       .  A
C1227      C1232   1.401       .  A
C1228      C1229   1.411       .  A
C1228     Br1239   1.940       .  S
C1229      C1230   1.432       .  A
C1229     Br1235   1.920       .  S
C1230      C1231   1.426       .  A
C1231      C1232   1.406       .  A
C1231     Br1240   1.920       .  S
C1232     Br1236   1.933       .  S
C1241      C1242   1.415       .  A
C1241      C1246   1.416       .  A
C1242      C1243   1.408       .  A
C1242     Br1254   1.930       .  S
C1243      C1244   1.407       .  A
C1243     Br1258   1.931       .  S
C1244      C1247   1.486       .  S
C1244      C1245   1.409       .  A
C1245      C1246   1.409       .  A
C1245     Br1253   1.931       .  S
C1246     Br1257   1.933   1_655  S
C1247      C1248   1.400       .  A
C1247      C1252   1.407       .  A
C1248      C1249   1.405       .  A
C1248     Br1259   1.936       .  S
C1249      C1250   1.430       .  A
C1249     Br1255   1.931       .  S
C1250      C1251   1.424       .  A
C1251      C1252   1.415       .  A
C1251     Br1260   1.927       .  S
C1252     Br1256   1.930       .  S
C1261      C1262   1.437       .  A
C1261      C1266   1.430       .  A
C1262      C1263   1.411       .  A
C1262     Br1274   1.926       .  S
C1263      C1264   1.400       .  A
C1263     Br1278   1.941       .  S
C1264      C1267   1.488       .  S
C1264      C1265   1.401       .  A
C1265      C1266   1.411       .  A
C1265     Br1273   1.932       .  S
C1266     Br1277   1.936       .  S
C1267      C1268   1.404       .  A
C1267      C1272   1.409       .  A
C1268      C1269   1.406       .  A
C1268     Br1279   1.931       .  S
C1269      C1270   1.415       .  A
C1269     Br1275   1.920       .  S
C1270      C1271   1.416       .  A
C1271      C1272   1.413       .  A
C1271     Br1280   1.919       .  S
C1272     Br1276   1.933       .  S
C1281      C1282   1.427       .  A
C1281      C1286   1.432       .  A
C1282      C1283   1.413       .  A
C1282     Br1294   1.918       .  S
C1283      C1284   1.403       .  A
C1283     Br1298   1.934       .  S
C1284      C1287   1.481       .  S
C1284      C1285   1.398       .  A
C1285      C1286   1.402       .  A
C1285     Br1293   1.936       .  S
C1286     Br1297   1.938       .  S
C1287      C1288   1.405       .  A
C1287      C1292   1.409       .  A
C1288      C1289   1.406       .  A
C1288     Br1299   1.931       .  S
C1289      C1290   1.416       .  A
C1289     Br1295   1.933       .  S
C1290      C1291   1.414       .  A
C1291      C1292   1.406       .  A
C1291     Br1300   1.934       .  S
C1292     Br1296   1.931       .  S
C1301      C1302   1.425       .  A
C1301      C1306   1.416       .  A
C1302      C1303   1.413       .  A
C1302     Br1314   1.930       .  S
C1303      C1304   1.405       .  A
C1303     Br1318   1.933       .  S
C1304      C1307   1.489       .  S
C1304      C1305   1.406       .  A
C1305      C1306   1.409       .  A
C1305     Br1313   1.933       .  S
C1306     Br1317   1.921       .  S
C1307      C1308   1.408       .  A
C1307      C1312   1.404       .  A
C1308      C1309   1.413       .  A
C1308     Br1319   1.929       .  S
C1309      C1310   1.423       .  A
C1309     Br1315   1.936       .  S
C1310      C1311   1.418       .  A
C1311      C1312   1.406       .  A
C1311     Br1320   1.924       .  S
C1312     Br1316   1.934       .  S
C1321      C1322   1.436       .  A
C1321      C1326   1.430       .  A
C1322      C1323   1.414       .  A
C1322     Br1334   1.936       .  S
C1323      C1324   1.403       .  A
C1323     Br1338   1.935       .  S
C1324      C1327   1.490       .  S
C1324      C1325   1.401       .  A
C1325      C1326   1.407       .  A
C1325     Br1333   1.936       .  S
C1326     Br1337   1.930       .  S
C1327      C1328   1.407       .  A
C1327      C1332   1.410       .  A
C1328      C1329   1.410       .  A
C1328     Br1339   1.930       .  S
C1329      C1330   1.416       .  A
C1329     Br1335   1.930       .  S
C1330      C1331   1.415       .  A
C1331      C1332   1.409       .  A
C1331     Br1340   1.932       .  S
C1332     Br1336   1.934       .  S
C1341      C1342   1.424       .  A
C1341      C1346   1.424       .  A
C1342      C1343   1.404       .  A
C1342     Br1354   1.924       .  S
C1343      C1344   1.402       .  A
C1343     Br1358   1.934       .  S
C1344      C1347   1.487       .  S
C1344      C1345   1.409       .  A
C1345      C1346   1.414       .  A
C1345     Br1353   1.931       .  S
C1346     Br1357   1.932       .  S
C1347      C1348   1.409       .  A
C1347      C1352   1.408       .  A
C1348      C1349   1.409       .  A
C1348     Br1359   1.932       .  S
C1349      C1350   1.417       .  A
C1349     Br1355   1.931       .  S
C1350      C1351   1.415       .  A
C1351      C1352   1.407       .  A
C1351     Br1360   1.932       .  S
C1352     Br1356   1.931       .  S
C1361      C1362   1.418       .  A
C1361      C1366   1.421       .  A
C1362      C1363   1.405       .  A
C1362     Br1374   1.907       .  S
C1363      C1364   1.404       .  A
C1363     Br1378   1.938       .  S
C1364      C1367   1.494       .  S
C1364      C1365   1.412       .  A
C1365      C1366   1.413       .  A
C1365     Br1373   1.931       .  S
C1366     Br1377   1.934       .  S
C1367      C1368   1.409       .  A
C1367      C1372   1.415       .  A
C1368      C1369   1.404       .  A
C1368     Br1379   1.931       .  S
C1369      C1370   1.414       .  A
C1369     Br1375   1.931       .  S
C1370      C1371   1.412       .  A
C1371      C1372   1.412       .  A
C1371     Br1380   1.926       .  S
C1372     Br1376   1.932       .  S
C1381      C1382   1.420       .  A
C1381      C1386   1.426       .  A
C1382      C1383   1.416       .  A
C1382     Br1394   1.927       .  S
C1383      C1384   1.412       .  A
C1383     Br1398   1.931       .  S
C1384      C1387   1.499       .  S
C1384      C1385   1.407       .  A
C1385      C1386   1.408       .  A
C1385     Br1393   1.934       .  S
C1386     Br1397   1.939       .  S
C1387      C1388   1.410       .  A
C1387      C1392   1.412       .  A
C1388      C1389   1.411       .  A
C1388     Br1399   1.932       .  S
C1389      C1390   1.412       .  A
C1389     Br1395   1.913       .  S
C1390      C1391   1.415       .  A
C1391      C1392   1.413       .  A
C1391     Br1400   1.928       .  S
C1392     Br1396   1.932       .  S
C1401      C1402   1.422       .  A
C1401      C1406   1.416       .  A
C1402      C1403   1.405       .  A
C1402     Br1414   1.934       .  S
C1403      C1404   1.405       .  A
C1403     Br1418   1.932       .  S
C1404      C1407   1.491       .  S
C1404      C1405   1.412       .  A
C1405      C1406   1.413       .  A
C1405     Br1413   1.930       .  S
C1406     Br1417   1.929       .  S
C1407      C1408   1.408       .  A
C1407      C1412   1.416       .  A
C1408      C1409   1.408       .  A
C1408     Br1419   1.931       .  S
C1409      C1410   1.411       .  A
C1409     Br1415   1.916       .  S
C1410      C1411   1.404       .  A
C1411      C1412   1.404       .  A
C1411     Br1420   1.934       .  S
C1412     Br1416   1.922       .  S
C1421      C1422   1.414       .  A
C1421      C1426   1.422       .  A
C1422      C1423   1.402       .  A
C1422     Br1434   1.921       .  S
C1423      C1424   1.404       .  A
C1423     Br1438   1.929       .  S
C1424      C1427   1.476       .  S
C1424      C1425   1.405       .  A
C1425      C1426   1.408       .  A
C1425     Br1433   1.930       .  S
C1426     Br1437   1.934       .  S
C1427      C1428   1.406       .  A
C1427      C1432   1.407       .  A
C1428      C1429   1.402       .  A
C1428     Br1439   1.932       .  S
C1429      C1430   1.413       .  A
C1429     Br1435   1.934       .  S
C1430      C1431   1.414       .  A
C1431      C1432   1.408       .  A
C1431     Br1440   1.930       .  S
C1432     Br1436   1.930       .  S
C1441      C1442   1.417       .  A
C1441      C1446   1.420       .  A
C1442      C1443   1.411       .  A
C1442     Br1454   1.932       .  S
C1443      C1444   1.409       .  A
C1443     Br1458   1.930       .  S
C1444      C1447   1.491       .  S
C1444      C1445   1.407       .  A
C1445      C1446   1.411       .  A
C1445     Br1453   1.932       .  S
C1446     Br1457   1.932       .  S
C1447      C1448   1.402       .  A
C1447      C1452   1.407       .  A
C1448      C1449   1.405       .  A
C1448     Br1459   1.932       .  S
C1449      C1450   1.425       .  A
C1449     Br1455   1.929       .  S
C1450      C1451   1.427       .  A
C1451      C1452   1.416       .  A
C1451     Br1460   1.930       .  S
C1452     Br1456   1.931       .  S
C1461      C1462   1.430       .  A
C1461      C1466   1.434       .  A
C1462      C1463   1.407       .  A
C1462     Br1474   1.938       .  S
C1463      C1464   1.399       .  A
C1463     Br1478   1.931       .  S
C1464      C1467   1.476       .  S
C1464      C1465   1.400       .  A
C1465      C1466   1.406       .  A
C1465     Br1473   1.944       .  S
C1466     Br1477   1.926       .  S
C1467      C1468   1.401       .  A
C1467      C1472   1.404       .  A
C1468      C1469   1.402       .  A
C1468     Br1479   1.933       .  S
C1469      C1470   1.415       .  A
C1469     Br1475   1.919       .  S
C1470      C1471   1.418       .  A
C1471      C1472   1.407       .  A
C1471     Br1480   1.918       .  S
C1472     Br1476   1.934       .  S
C1481      C1482   1.417       .  A
C1481      C1486   1.413       .  A
C1482      C1483   1.404       .  A
C1482     Br1494   1.919       .  S
C1483      C1484   1.403       .  A
C1483     Br1498   1.934       .  S
C1484      C1487   1.485       .  S
C1484      C1485   1.409       .  A
C1485      C1486   1.411       .  A
C1485     Br1493   1.929       .  S
C1486     Br1497   1.928       .  S
C1487      C1488   1.405       .  A
C1487      C1492   1.405       .  A
C1488      C1489   1.406       .  A
C1488     Br1499   1.932       .  S
C1489      C1490   1.415       .  A
C1489     Br1495   1.920       .  S
C1490      C1491   1.419       .  A
C1491      C1492   1.411       .  A
C1491     Br1500   1.921       .  S
C1492     Br1496   1.931       .  S
C1501      C1502   1.430       .  A
C1501      C1506   1.423       .  A
C1502      C1503   1.409       .  A
C1502     Br1514   1.922       .  S
C1503      C1504   1.406       .  A
C1503     Br1518   1.939       .  S
C1504      C1507   1.498       .  S
C1504      C1505   1.409       .  A
C1505      C1506   1.410       .  A
C1505     Br1513   1.930       .  S
C1506     Br1517   1.934       .  S
C1507      C1508   1.418       .  A
C1507      C1512   1.412       .  A
C1508      C1509   1.413       .  A
C1508     Br1519   1.933       .  S
C1509      C1510   1.407       .  A
C1509     Br1515   1.926       .  S
C1510      C1511   1.414       .  A
C1511      C1512   1.409       .  A
C1511     Br1520   1.929       .  S
C1512     Br1516   1.933       .  S
C1521      C1522   1.420       .  A
C1521      C1526   1.423       .  A
C1522      C1523   1.404       .  A
C1522     Br1534   1.920       .  S
C1523      C1524   1.404       .  A
C1523     Br1538   1.936       .  S
C1524      C1527   1.486       .  S
C1524      C1525   1.408       .  A
C1525      C1526   1.412       .  A
C1525     Br1533   1.928       .  S
C1526     Br1537   1.935       .  S
C1527      C1528   1.412       .  A
C1527      C1532   1.409       .  A
C1528      C1529   1.411       .  A
C1528     Br1539   1.930       .  S
C1529      C1530   1.409       .  A
C1529     Br1535   1.927       .  S
C1530      C1531   1.411       .  A
C1531      C1532   1.406       .  A
C1531     Br1540   1.930       .  S
C1532     Br1536   1.932       .  S
C1541      C1542   1.409       .  A
C1541      C1546   1.413       .  A
C1542      C1543   1.408       .  A
C1542     Br1554   1.921       .  S
C1543      C1544   1.411       .  A
C1543     Br1558   1.932       .  S
C1544      C1547   1.485       .  S
C1544      C1545   1.407       .  A
C1545      C1546   1.404       .  A
C1545     Br1553   1.931       .  S
C1546     Br1557   1.930       .  S
C1547      C1548   1.397       .  A
C1547      C1552   1.404       .  A
C1548      C1549   1.408       .  A
C1548     Br1559   1.939       .  S
C1549      C1550   1.437       .  A
C1549     Br1555   1.928       .  S
C1550      C1551   1.430       .  A
C1551      C1552   1.411       .  A
C1551     Br1560   1.923       .  S
C1552     Br1556   1.938       .  S
C1561      C1562   1.423       .  A
C1561      C1566   1.432       .  A
C1562      C1563   1.404       .  A
C1562     Br1574   1.923       .  S
C1563      C1564   1.402       .  A
C1563     Br1578   1.937       .  S
C1564      C1567   1.479       .  S
C1564      C1565   1.401       .  A
C1565      C1566   1.410       .  A
C1565     Br1573   1.935       .  S
C1566     Br1577   1.937       .  S
C1567      C1568   1.407       .  A
C1567      C1572   1.405       .  A
C1568      C1569   1.403       .  A
C1568     Br1579   1.934       .  S
C1569      C1570   1.413       .  A
C1569     Br1575   1.929       .  S
C1570      C1571   1.418       .  A
C1571      C1572   1.409       .  A
C1571     Br1580   1.930       .  S
C1572     Br1576   1.930       .  S
C1581      C1582   1.420       .  A
C1581      C1586   1.422       .  A
C1582      C1583   1.406       .  A
C1582     Br1594   1.919       .  S
C1583      C1584   1.402       .  A
C1583     Br1598   1.933       .  S
C1584      C1587   1.477       .  S
C1584      C1585   1.402       .  A
C1585      C1586   1.406       .  A
C1585     Br1593   1.936       .  S
C1586     Br1597   1.917       .  S
C1587      C1588   1.405       .  A
C1587      C1592   1.399       .  A
C1588      C1589   1.411       .  A
C1588     Br1599   1.933       .  S
C1589      C1590   1.421       .  A
C1589     Br1595   1.915       .  S
C1590      C1591   1.415       .  A
C1591      C1592   1.399       .  A
C1591     Br1600   1.910       .  S
C1592     Br1596   1.934       .  S
C1601      C1602   1.408       .  A
C1601      C1606   1.417       .  A
C1602      C1603   1.408       .  A
C1602     Br1614   1.916       .  S
C1603      C1604   1.410       .  A
C1603     Br1618   1.931       .  S
C1604      C1607   1.480       .  S
C1604      C1605   1.403       .  A
C1605      C1606   1.399       .  A
C1605     Br1613   1.934       .  S
C1606     Br1617   1.924       .  S
C1607      C1608   1.404       .  A
C1607      C1612   1.410       .  A
C1608      C1609   1.403       .  A
C1608     Br1619   1.932       .  S
C1609      C1610   1.419       .  A
C1609     Br1615   1.934       .  S
C1610      C1611   1.415       .  A
C1611      C1612   1.406       .  A
C1611     Br1620   1.927       .  S
C1612     Br1616   1.935       .  S
C1621      C1622   1.430       .  A
C1621      C1626   1.423       .  A
C1622      C1623   1.407       .  A
C1622     Br1634   1.940       .  S
C1623      C1624   1.403       .  A
C1623     Br1638   1.932       .  S
C1624      C1627   1.487       .  S
C1624      C1625   1.406       .  A
C1625      C1626   1.410       .  A
C1625     Br1633   1.935       .  S
C1626     Br1637   1.928       .  S
C1627      C1628   1.406       .  A
C1627      C1632   1.412       .  A
C1628      C1629   1.406       .  A
C1628     Br1639   1.932       .  S
C1629      C1630   1.412       .  A
C1629     Br1635   1.921       .  S
C1630      C1631   1.408       .  A
C1631      C1632   1.410       .  A
C1631     Br1640   1.926       .  S
C1632     Br1636   1.929       .  S
C1641      C1642   1.421       .  A
C1641      C1646   1.426       .  A
C1642      C1643   1.407       .  A
C1642     Br1654   1.933       .  S
C1643      C1644   1.404       .  A
C1643     Br1658   1.928       .  S
C1644      C1647   1.477       .  S
C1644      C1645   1.401       .  A
C1645      C1646   1.404       .  A
C1645     Br1653   1.939       .  S
C1646     Br1657   1.919       .  S
C1647      C1648   1.406       .  A
C1647      C1652   1.409       .  A
C1648      C1649   1.402       .  A
C1648     Br1659   1.932       .  S
C1649      C1650   1.412       .  A
C1649     Br1655   1.929       .  S
C1650      C1651   1.410       .  A
C1651      C1652   1.408       .  A
C1651     Br1660   1.928       .  S
C1652     Br1656   1.929       .  S
C1661      C1662   1.432       .  A
C1661      C1666   1.422       .  A
C1662      C1663   1.416       .  A
C1662     Br1674   1.931       .  S
C1663      C1664   1.409       .  A
C1663     Br1678   1.934       .  S
C1664      C1667   1.480       .  S
C1664      C1665   1.396       .  A
C1665      C1666   1.392       .  A
C1665     Br1673   1.934       .  S
C1666     Br1677   1.925       .  S
C1667      C1668   1.407       .  A
C1667      C1672   1.409       .  A
C1668      C1669   1.407       .  A
C1668     Br1679   1.932       .  S
C1669      C1670   1.419       .  A
C1669     Br1675   1.928       .  S
C1670      C1671   1.406       .  A
C1671      C1672   1.399       .  A
C1671     Br1680   1.918       .  S
C1672     Br1676   1.932       .  S
