geometry optimzed in LAMMPS
_audit_creation_date              2020-11-30 
_audit_creation_method            'lammps2cif' 
_symmetry_space_group_name_H-M    'P1' 
_symmetry_Int_Tables_number       1 
_symmetry_cell_setting            triclinic 
loop_ 
_symmetry_equiv_pos_as_xyz 
  x,y,z 
_cell_length_a                    108.47554931 
_cell_length_b                    108.3619042860201 
_cell_length_c                    108.35511973704148 
_cell_angle_alpha                 89.91753770548212 
_cell_angle_beta                  90.03702900433102 
_cell_angle_gamma                 89.85574993112729 
loop_ 
_atom_site_label 
_atom_site_type_symbol 
_atom_site_fract_x 
_atom_site_fract_y 
_atom_site_fract_z 
_atom_site_charge 
N1          N  0.48436797  0.21131371  0.79439926    -0.27000
N2          N  0.47694179  0.21767418  0.80171476    -0.34800
C3          C  0.47943798  0.22976628  0.80059534     0.01400
C4          C  0.48906031  0.23121343  0.79237366     0.07400
C5          C  0.49198610  0.21929327  0.78862979    -0.05700
H6          H  0.47537385  0.23689317  0.80628686     0.08100
H7          H  0.49948463  0.21658033  0.78262772     0.09300
Cu8        Cu  0.46622454  0.20997417  0.81554919     0.44200
Cu9        Cu  0.48449614  0.19192734  0.79371598     0.42000
Cu10       Cu  0.47256532  0.17808862  0.82159786     0.43900
N11         N  0.46144955  0.20131904  0.83193745    -0.34400
N12         N  0.46433726  0.18971054  0.83433567    -0.28600
C13         C  0.46166959  0.18721432  0.84618810    -0.04700
C14         C  0.45689615  0.19778751  0.85155751     0.07500
C15         C  0.45680724  0.20652578  0.84220852     0.01300
H16         H  0.46338920  0.17843169  0.85061929     0.09000
H17         H  0.45433613  0.21616245  0.84303237     0.08000
N18         N  0.47889265  0.16789177  0.80673407    -0.35800
N19         N  0.48263547  0.17278284  0.79619448    -0.28000
C20         C  0.48423843  0.16359624  0.78792919    -0.03200
C21         C  0.48160584  0.15242981  0.79366931     0.05400
C22         C  0.47828125  0.15555965  0.80556911     0.03500
H23         H  0.48674968  0.16496082  0.77836326     0.08600
H24         H  0.47479116  0.14940222  0.81258943     0.07400
N25         N  0.29811153  0.02354172  0.80066253    -0.27000
N26         N  0.30486633  0.03026608  0.79303435    -0.34800
C27         C  0.30303206  0.02651338  0.78139264     0.01400
C28         C  0.29487139  0.01678515  0.78146826     0.07400
C29         C  0.29198598  0.01504389  0.79388205    -0.05700
H30         H  0.30819518  0.02986668  0.77354471     0.08100
H31         H  0.28623921  0.00783274  0.79771762     0.09300
Cu32       Cu  0.31901232  0.04183512  0.79812978     0.44200
Cu33       Cu  0.29856862  0.02606698  0.82005066     0.42000
Cu34       Cu  0.32646650  0.04286840  0.82936571     0.43900
N35         N  0.33588603  0.04812133  0.80414978    -0.34400
N36         N  0.33879914  0.04848946  0.81595844    -0.28600
C37         C  0.35071992  0.05170879  0.81709339    -0.04700
C38         C  0.35555648  0.05327485  0.80536029     0.07500
C39         C  0.34587979  0.05088308  0.79738935     0.01300
H40         H  0.35567967  0.05207279  0.82575080     0.09000
H41         H  0.34620735  0.05064395  0.78740910     0.08000
N42         N  0.31276046  0.03729286  0.84140065    -0.35800
N43         N  0.30248011  0.03144305  0.83843802    -0.28000
C44         C  0.29579428  0.02982743  0.84888498    -0.03200
C45         C  0.30230269  0.03479851  0.85882004     0.05400
C46         C  0.31295410  0.03942477  0.85357744     0.03500
H47         H  0.28696799  0.02521510  0.84924461     0.08600
H48         H  0.32033051  0.04422757  0.85824751     0.07400
N49         N  0.46718113  0.04513067  0.77082517    -0.27000
N50         N  0.45808481  0.03884366  0.77595444    -0.34800
C51         C  0.45969838  0.02675154  0.77383170     0.01400
C52         C  0.47019358  0.02517274  0.76681129     0.07400
C53         C  0.47470210  0.03705884  0.76498905    -0.05700
H54         H  0.45311629  0.01968876  0.77634302     0.08100
H55         H  0.48261115  0.03966408  0.75950024     0.09300
Cu56       Cu  0.44232518  0.04661637  0.78328605     0.44200
Cu57       Cu  0.46814565  0.06452724  0.77182102     0.42000
Cu58       Cu  0.43881660  0.07900343  0.78120072     0.43900
N59         N  0.42593416  0.05545078  0.78731519    -0.34400
N60         N  0.42459788  0.06755197  0.78674125    -0.28600
C61         C  0.41295204  0.07051217  0.78986614    -0.04700
C62         C  0.40664838  0.05968771  0.79227073     0.07500
C63         C  0.41514073  0.05032561  0.79053334     0.01300
H64         H  0.40925846  0.07980340  0.79002198     0.09000
H65         H  0.41359143  0.04050778  0.79152265     0.08000
N66         N  0.45490627  0.08860632  0.77760103    -0.35800
N67         N  0.46572969  0.08358016  0.77495185    -0.28000
C68         C  0.47435144  0.09257443  0.77511775    -0.03200
C69         C  0.46856050  0.10372593  0.77770552     0.05400
C70         C  0.45628575  0.10081108  0.77919221     0.03500
H71         H  0.48411691  0.09108290  0.77371190     0.08600
H72         H  0.44898502  0.10701303  0.78200224     0.07400
N73         N  0.29509486  0.21029331  0.98646582    -0.27000
N74         N  0.28915979  0.20053750  0.98219286    -0.34800
C75         C  0.27709737  0.20163585  0.98470696     0.01400
C76         C  0.27518694  0.21248316  0.99109029     0.07400
C77         C  0.28683966  0.21772033  0.99215763    -0.05700
H78         H  0.27039549  0.19443553  0.98313367     0.08100
H79         H  0.28921172  0.22598599  0.99723102     0.09300
Cu80       Cu  0.29747537  0.18445642  0.97621592     0.44200
Cu81       Cu  0.31438285  0.21212817  0.98510296     0.42000
Cu82       Cu  0.32996010  0.18282844  0.97819684     0.43900
N83         N  0.30705890  0.16806326  0.97431935    -0.34400
N84         N  0.31920321  0.16745240  0.97483114    -0.28600
C85         C  0.32275413  0.15562547  0.97349960    -0.04700
C86         C  0.31229022  0.14843204  0.97236689     0.07500
C87         C  0.30250108  0.15662718  0.97292073     0.01300
H88         H  0.33223308  0.15245507  0.97371130     0.09000
H89         H  0.29279062  0.15445627  0.97233962     0.08000
N90         N  0.33899315  0.19942925  0.98079416    -0.35800
N91         N  0.33356829  0.21023202  0.98264128    -0.28000
C92         C  0.34229348  0.21911831  0.98223920    -0.03200
C93         C  0.35368315  0.21352791  0.98037179     0.05400
C94         C  0.35118370  0.20109692  0.97947333     0.03500
H95         H  0.34045825  0.22890775  0.98290012     0.08600
H96         H  0.35766917  0.19384988  0.97722564     0.07400
N97         N  0.27632044  0.03883162  0.96736883    -0.27000
N98         N  0.28259359  0.04536265  0.97555066    -0.34800
C99         C  0.27919637  0.04211156  0.98698157     0.01400
C100        C  0.27018693  0.03320888  0.98620812     0.07400
C101        C  0.26843956  0.03141484  0.97359596    -0.05700
H102        H  0.28236646  0.04665566  0.99527936     0.08100
H103        H  0.26174186  0.02541186  0.96929762     0.09300
Cu104      Cu  0.29371813  0.06029447  0.97179268     0.44200
Cu105      Cu  0.27914027  0.04069572  0.94813354     0.42000
Cu106      Cu  0.30132450  0.06549026  0.94121983     0.43900
N107        N  0.30195857  0.07652244  0.96631624    -0.34400
N108        N  0.30507203  0.07840902  0.95471478    -0.28600
C109        C  0.30903666  0.09007960  0.95341855    -0.04700
C110        C  0.30826705  0.09587986  0.96478830     0.07500
C111        C  0.30369972  0.08697326  0.97275496     0.01300
H112        H  0.31136533  0.09429172  0.94465634     0.09000
H113        H  0.30126269  0.08815669  0.98235578     0.08000
N114        N  0.29492067  0.05287500  0.92843153    -0.35800
N115        N  0.28655064  0.04421531  0.93041363    -0.28000
C116        C  0.28467496  0.03809514  0.91968016    -0.03200
C117        C  0.29237469  0.04307976  0.91070014     0.05400
C118        C  0.29865522  0.05239776  0.91664641     0.03500
H119        H  0.27853762  0.03030401  0.91860212     0.08600
H120        H  0.30553993  0.05843178  0.91267757     0.07400
N121        N  0.46133523  0.22990322  0.96294565    -0.27000
N122        N  0.46744391  0.22355711  0.95449782    -0.34800
C123        C  0.47955844  0.22577770  0.95559918     0.01400
C124        C  0.48135992  0.23412262  0.96503779     0.07400
C125        C  0.46956268  0.23657398  0.96951447    -0.05700
H126        H  0.48645994  0.22248056  0.94917724     0.08100
H127        H  0.46710087  0.24312518  0.97663087     0.09300
Cu128      Cu  0.45947301  0.21486015  0.93956598     0.44200
Cu129      Cu  0.44190854  0.22977858  0.96398009     0.42000
Cu130      Cu  0.42760071  0.21968431  0.93495372     0.43900
N131        N  0.45093443  0.21143784  0.92288184    -0.34400
N132        N  0.43911215  0.21359317  0.92097297    -0.28600
C133        C  0.43647511  0.21144108  0.90902745    -0.04700
C134        C  0.44722902  0.20778729  0.90311109     0.07500
C135        C  0.45618485  0.20787826  0.91224246     0.01300
H136        H  0.42740534  0.21246157  0.90501752     0.09000
H137        H  0.46590846  0.20594795  0.91115969     0.08000
N138        N  0.41783329  0.22436106  0.95070820    -0.35800
N139        N  0.42274826  0.22759829  0.96140799    -0.28000
C140        C  0.41356219  0.22872811  0.96976977    -0.03200
C141        C  0.40237902  0.22621205  0.96397738     0.05400
C142        C  0.40554591  0.22352581  0.95191776     0.03500
H143        H  0.41494616  0.23106231  0.97937534     0.08600
H144        H  0.39940609  0.22054170  0.94464871     0.07400
N145        N  0.29757477  0.98188198  0.71787294    -0.27000
N146        N  0.30651209  0.97636558  0.72410006    -0.34800
C147        C  0.30547189  0.97908123  0.73614187     0.01400
C148        C  0.29548689  0.98685907  0.73773895     0.07400
C149        C  0.29071636  0.98850153  0.72590815    -0.05700
H150        H  0.31223358  0.97656157  0.74304670     0.08100
H151        H  0.28320071  0.99456059  0.72326958     0.09300
Cu152      Cu  0.32161985  0.96807243  0.71601967     0.44200
Cu153      Cu  0.29632872  0.98078883  0.69851049     0.42000
Cu154      Cu  0.32558211  0.97171579  0.68364933     0.43900
N155        N  0.33795326  0.96401846  0.70712748    -0.34400
N156        N  0.33964443  0.96553379  0.69516071    -0.28600
C157        C  0.35139248  0.96257815  0.69237475    -0.04700
C158        C  0.35738686  0.95910180  0.70317932     0.07500
C159        C  0.34852798  0.96018903  0.71231518     0.01300
H160        H  0.35532449  0.96327502  0.68323346     0.09000
H161        H  0.34967162  0.95842515  0.72208577     0.08000
N162        N  0.30929383  0.97542010  0.67420205    -0.35800
N163        N  0.29853367  0.97795148  0.67940825    -0.28000
C164        C  0.28974612  0.97784903  0.67055238    -0.03200
C165        C  0.29532052  0.97538708  0.65927355     0.05400
C166        C  0.30768257  0.97395521  0.66199294     0.03500
H167        H  0.28000758  0.97917938  0.67222954     0.08600
H168        H  0.31488158  0.97120843  0.65565465     0.07400
N169        N  0.46852034  0.95960069  0.73586915    -0.27000
N170        N  0.45957793  0.96632595  0.73096828    -0.34800
C171        C  0.46100792  0.97818066  0.73414306     0.01400
C172        C  0.47124128  0.97914821  0.74159712     0.07400
C173        C  0.47577711  0.96715423  0.74265325    -0.05700
H174        H  0.45454728  0.98545138  0.73189020     0.08100
H175        H  0.48357765  0.96414387  0.74810467     0.09300
Cu176      Cu  0.44436131  0.95941484  0.72207519     0.44200
Cu177      Cu  0.46972014  0.94043741  0.73261524     0.42000
Cu178      Cu  0.44273158  0.92830254  0.71466216     0.43900
N179        N  0.42834314  0.95158135  0.71571853    -0.34400
N180        N  0.42758131  0.93986186  0.71255210    -0.28600
C181        C  0.41587423  0.93739916  0.70916032    -0.04700
C182        C  0.40900569  0.94812648  0.71051376     0.07500
C183        C  0.41721154  0.95688868  0.71469819     0.01300
H184        H  0.41251055  0.92840305  0.70647289     0.09000
H185        H  0.41519604  0.96639812  0.71703205     0.08000
N186        N  0.45874235  0.91853284  0.71874665    -0.35800
N187        N  0.46822599  0.92239165  0.72543449    -0.28000
C188        C  0.47669872  0.91320684  0.72593138    -0.03200
C189        C  0.47233531  0.90327647  0.71913550     0.05400
C190        C  0.46099880  0.90703482  0.71474415     0.03500
H191        H  0.48555471  0.91388240  0.73047043     0.08600
H192        H  0.45483965  0.90179822  0.70891391     0.07400
N193        N  0.27572697  0.95882070  0.55252512    -0.27000
N194        N  0.28241562  0.95085495  0.54614438    -0.34800
C195        C  0.27995732  0.95220710  0.53406158     0.01400
C196        C  0.27115388  0.96134984  0.53263957     0.07400
C197        C  0.26861767  0.96530029  0.54457797    -0.05700
H198        H  0.28343713  0.94614753  0.52693382     0.08100
H199        H  0.26168713  0.97196140  0.54731611     0.09300
Cu200      Cu  0.29202153  0.93626564  0.55396874     0.44200
Cu201      Cu  0.27593111  0.95929476  0.57188204     0.42000
Cu202      Cu  0.28516885  0.92998857  0.58577724     0.43900
N203        N  0.29618997  0.91962935  0.56247482    -0.34400
N204        N  0.29303279  0.91700554  0.57395813    -0.28600
C205        C  0.29577933  0.90509076  0.57626181    -0.04700
C206        C  0.30101968  0.90000293  0.56574262     0.07500
C207        C  0.30109893  0.90952256  0.55719659     0.01300
H208        H  0.29399810  0.90044730  0.58492243     0.09000
H209        H  0.30391313  0.90899098  0.54764330     0.08000
N210        N  0.28044695  0.94563300  0.59592479    -0.35800
N211        N  0.27782479  0.95649905  0.59095981    -0.28000
C212        C  0.27737135  0.96501388  0.60003401    -0.03200
C213        C  0.27957042  0.95917982  0.61124104     0.05400
C214        C  0.28143960  0.94690988  0.60824315     0.03500
H215        H  0.27600957  0.97479428  0.59854492     0.08600
H216        H  0.28429805  0.93963391  0.61446009     0.07400
N217        N  0.46778038  0.76140193  0.53972478    -0.27000
N218        N  0.47518320  0.76823498  0.54660610    -0.34800
C219        C  0.48693110  0.76498485  0.54456058     0.01400
C220        C  0.48719406  0.75544642  0.53616955     0.07400
C221        C  0.47483990  0.75330846  0.53331560    -0.05700
H222        H  0.49469422  0.76855354  0.54971542     0.08100
H223        H  0.47125759  0.74614118  0.52739183     0.09300
Cu224      Cu  0.46982361  0.77958663  0.56090781     0.44200
Cu225      Cu  0.44835055  0.76348997  0.54021581     0.42000
Cu226      Cu  0.43869063  0.78269000  0.56684163     0.43900
N227        N  0.46356551  0.78736215  0.57712128    -0.34400
N228        N  0.45170598  0.78870031  0.57940084    -0.28600
C229        C  0.45024120  0.79300312  0.59096134    -0.04700
C230        C  0.46181023  0.79425660  0.59626237     0.07500
C231        C  0.47002565  0.79055863  0.58719609     0.01300
H232        H  0.44141705  0.79430269  0.59543576     0.09000
H233        H  0.47993723  0.78975897  0.58802747     0.08000
N234        N  0.42700878  0.77634642  0.55316346    -0.35800
N235        N  0.43002786  0.76951540  0.54348404    -0.28000
C236        C  0.41989268  0.76837507  0.53623562    -0.03200
C237        C  0.41020562  0.77482514  0.54169183     0.05400
C238        C  0.41513736  0.77968627  0.55233945     0.03500
H239        H  0.41977700  0.76386912  0.52733405     0.08600
H240        H  0.41055830  0.78581408  0.55875970     0.07400
N241        N  0.30132149  0.78976781  0.52924510    -0.27000
N242        N  0.29486944  0.79755923  0.53608080    -0.34800
C243        C  0.28279998  0.79600248  0.53384386     0.01400
C244        C  0.28139998  0.78693436  0.52501468     0.07400
C245        C  0.29337406  0.78321862  0.52223188    -0.05700
H246        H  0.27563045  0.80195059  0.53743433     0.08100
H247        H  0.29611888  0.77670251  0.51516548     0.09300
Cu248      Cu  0.30220174  0.81239403  0.54553871     0.44200
Cu249      Cu  0.32074792  0.78960752  0.52915743     0.42000
Cu250      Cu  0.33381660  0.81853237  0.54124437     0.43900
N251        N  0.30997797  0.82917353  0.55017786    -0.34400
N252        N  0.32169510  0.83173736  0.54819406    -0.28600
C253        C  0.32371553  0.84366277  0.55107694    -0.04700
C254        C  0.31269667  0.84883758  0.55513567     0.07500
C255        C  0.30420663  0.83932236  0.55436932     0.01300
H256        H  0.33250162  0.84824390  0.55015272     0.09000
H257        H  0.29440886  0.83984505  0.55612203     0.08000
N258        N  0.34421450  0.80336507  0.53558583    -0.35800
N259        N  0.33977355  0.79279952  0.53141205    -0.28000
C260        C  0.34931588  0.78497508  0.52943498    -0.03200
C261        C  0.36029679  0.79092855  0.53246830     0.05400
C262        C  0.35654252  0.80255764  0.53631900     0.03500
H263        H  0.34827065  0.77564025  0.52610592     0.08600
H264        H  0.36230238  0.80985228  0.53988151     0.07400
N265        N  0.49870159  0.79592226  0.70836259    -0.27000
N266        N  0.49456098  0.78866449  0.69946666    -0.34800
C267        C  0.49757361  0.77691033  0.70198114     0.01400
C268        C  0.50411878  0.77655421  0.71289558     0.07400
C269        C  0.50475114  0.78881644  0.71669006    -0.05700
H270        H  0.49579694  0.76923149  0.69586050     0.08100
H271        H  0.50945258  0.79231967  0.72476059     0.09300
Cu272      Cu  0.48650887  0.79449977  0.68317123     0.44200
Cu273      Cu  0.49596530  0.81524101  0.70819536     0.42000
Cu274      Cu  0.48200249  0.82599348  0.67880011     0.43900
N275        N  0.47997349  0.80152006  0.66666879    -0.34400
N276        N  0.47807709  0.81342662  0.66498495    -0.28600
C277        C  0.47408652  0.81532429  0.65335958    -0.04700
C278        C  0.47363986  0.80401663  0.64739767     0.07500
C279        C  0.47740928  0.79548024  0.65616356     0.01300
H280        H  0.47210470  0.82429332  0.64941029     0.09000
H281        H  0.47830841  0.78560003  0.65499756     0.08000
N282        N  0.48616478  0.83720481  0.69368891    -0.35800
N283        N  0.49101686  0.83373417  0.70435742    -0.28000
C284        C  0.49178024  0.84378871  0.71173150    -0.03200
C285        C  0.48724029  0.85403599  0.70532743     0.05400
C286        C  0.48379520  0.84933842  0.69396275     0.03500
H287        H  0.49535202  0.84359592  0.72103793     0.08600
H288        H  0.47946254  0.85426905  0.68644386     0.07400
N289        N  0.78920559  0.45754488  0.04203981    -0.27000
N290        N  0.79386427  0.44773441  0.03646389    -0.34800
C291        C  0.79088928  0.44805031  0.02442138     0.01400
C292        C  0.78383881  0.45846234  0.02218131     0.07400
C293        C  0.78290969  0.46424665  0.03360377    -0.05700
H294        H  0.79263591  0.44058568  0.01804724     0.08100
H295        H  0.77745018  0.47235234  0.03575383     0.09300
Cu296      Cu  0.80097573  0.43253919  0.04561923     0.44200
Cu297      Cu  0.79038037  0.46021450  0.06125848     0.42000
Cu298      Cu  0.79487587  0.43110653  0.07782251     0.43900
N299        N  0.80264184  0.41646167  0.05580624    -0.34400
N300        N  0.79981534  0.41573017  0.06763438    -0.28600
C301        C  0.80072556  0.40388522  0.07131303    -0.04700
C302        C  0.80440228  0.39686047  0.06128605     0.07500
C303        C  0.80549082  0.40515464  0.05162438     0.01300
H304        H  0.79886202  0.40064979  0.08055972     0.09000
H305        H  0.80770243  0.40306901  0.04210581     0.08000
N306        N  0.79247135  0.44802170  0.08635381    -0.35800
N307        N  0.79159197  0.45877928  0.08061225    -0.28000
C308        C  0.79174366  0.46782876  0.08919828    -0.03200
C309        C  0.79245222  0.46241600  0.10083073     0.05400
C310        C  0.79292677  0.44988904  0.09858404     0.03500
H311        H  0.79153863  0.47760214  0.08713938     0.08600
H312        H  0.79426647  0.44264032  0.10534345     0.07400
N313        N  0.81045709  0.48339543  0.20785715    -0.27000
N314        N  0.81979438  0.47846647  0.21400567    -0.34800
C315        C  0.81863181  0.48101681  0.22606269     0.01400
C316        C  0.80819986  0.48811690  0.22774612     0.07400
C317        C  0.80323843  0.48953950  0.21597533    -0.05700
H318        H  0.82545750  0.47870065  0.23299865     0.08100
H319        H  0.79520090  0.49493512  0.21346879     0.09300
Cu320      Cu  0.83533611  0.47095702  0.20597906     0.44200
Cu321      Cu  0.80882436  0.48181854  0.18853255     0.42000
Cu322      Cu  0.83752554  0.47145868  0.17343767     0.43900
N323        N  0.85161058  0.46732800  0.19679230    -0.34400
N324        N  0.85244695  0.46727282  0.18464064    -0.28600
C325        C  0.86418225  0.46483195  0.18141716    -0.04700
C326        C  0.87107134  0.46347987  0.19210821     0.07500
C327        C  0.86280300  0.46518046  0.20167171     0.01300
H328        H  0.86750804  0.46444325  0.17201442     0.09000
H329        H  0.86476779  0.46487043  0.21146013     0.08000
N330        N  0.82136567  0.47578457  0.16415095    -0.35800
N331        N  0.81078092  0.47890920  0.16939390    -0.28000
C332        C  0.80208037  0.47972897  0.16048629    -0.03200
C333        C  0.80758564  0.47734924  0.14915829     0.05400
C334        C  0.81976788  0.47486377  0.15189214     0.03500
H335        H  0.79244754  0.48174886  0.16213337     0.08600
H336        H  0.82682673  0.47193902  0.14549752     0.07400
N337        N  0.79505885  0.28714071  0.02962887    -0.27000
N338        N  0.78876838  0.29488300  0.03667038    -0.34800
C339        C  0.77673397  0.29417522  0.03384021     0.01400
C340        C  0.77525745  0.28576474  0.02439936     0.07400
C341        C  0.78709447  0.28149204  0.02190865    -0.05700
H342        H  0.76970721  0.30022406  0.03757083     0.08100
H343        H  0.78977308  0.27517053  0.01467094     0.09300
Cu344      Cu  0.79662392  0.30856585  0.04737427     0.44200
Cu345      Cu  0.81436127  0.28555452  0.03036006     0.42000
Cu346      Cu  0.82919228  0.31227217  0.04382229     0.43900
N347        N  0.80579870  0.32449432  0.05245177    -0.34400
N348        N  0.81775982  0.32595998  0.05075599    -0.28600
C349        C  0.82075274  0.33770958  0.05326427    -0.04700
C350        C  0.81015656  0.34401359  0.05667434     0.07500
C351        C  0.80083955  0.33529672  0.05607695     0.01300
H352        H  0.82991683  0.34149515  0.05217974     0.09000
H353        H  0.79107268  0.33687843  0.05725305     0.08000
N354        N  0.83875956  0.29677934  0.03792384    -0.35800
N355        N  0.83343788  0.28672571  0.03353346    -0.28000
C356        C  0.84213044  0.27788178  0.03222643    -0.03200
C357        C  0.85344988  0.28270338  0.03576756     0.05400
C358        C  0.85091687  0.29470864  0.03926590     0.03500
H359        H  0.84030377  0.26853525  0.02921786     0.08600
H360        H  0.85731724  0.30121007  0.04326549     0.07400
N361        N  0.95908562  0.25547413  0.04968183    -0.27000
N362        N  0.96503309  0.26126596  0.05860321    -0.34800
C363        C  0.97719584  0.25922199  0.05746480     0.01400
C364        C  0.97917353  0.25158057  0.04745419     0.07400
C365        C  0.96743655  0.24934706  0.04273113    -0.05700
H366        H  0.98401893  0.26219117  0.06410951     0.08100
H367        H  0.96510569  0.24334568  0.03510757     0.09300
Cu368      Cu  0.95650304  0.26905729  0.07375185     0.44200
Cu369      Cu  0.93969825  0.25574391  0.04850591     0.42000
Cu370      Cu  0.92509581  0.26014141  0.07853010     0.43900
N371        N  0.94733634  0.27142758  0.09029026    -0.34400
N372        N  0.93601025  0.26748468  0.09234591    -0.28600
C373        C  0.93295884  0.26988330  0.10414210    -0.04700
C374        C  0.94287797  0.27564508  0.10974381     0.07500
C375        C  0.95180824  0.27646764  0.10066768     0.01300
H376        H  0.92407843  0.26789896  0.10819223     0.09000
H377        H  0.96096852  0.28027433  0.10157606     0.08000
N378        N  0.91541069  0.25846055  0.06216182    -0.35800
N379        N  0.92055469  0.25784637  0.05110277    -0.28000
C380        C  0.91168992  0.25973244  0.04253186    -0.03200
C381        C  0.90047526  0.26134793  0.04852318     0.05400
C382        C  0.90323496  0.26043599  0.06092970     0.03500
H383        H  0.91335971  0.26043278  0.03269612     0.08600
H384        H  0.89704596  0.26223919  0.06852034     0.07400
N385        N  0.98659821  0.28550808  0.21318612    -0.27000
N386        N  0.97848424  0.27818246  0.20775742    -0.34800
C387        C  0.98182746  0.26636320  0.20947464     0.01400
C388        C  0.99269543  0.26606646  0.21609101     0.07400
C389        C  0.99549149  0.27838933  0.21828214    -0.05700
H390        H  0.97729718  0.25857868  0.20518604     0.08100
H391        H  0.00366265  0.28193076  0.22277918     0.09300
Cu392      Cu  0.96515359  0.28376295  0.19526275     0.44200
Cu393      Cu  0.98574706  0.30493054  0.21239916     0.42000
Cu394      Cu  0.96699725  0.31485711  0.18658234     0.43900
N395        N  0.95722884  0.29029642  0.17915306    -0.34400
N396        N  0.95819907  0.30196330  0.17584070    -0.28600
C397        C  0.95412735  0.30331142  0.16421975    -0.04700
C398        C  0.95056253  0.29184247  0.15987031     0.07500
C399        C  0.95254518  0.28382477  0.16967103     0.01300
H400        H  0.95439879  0.31191138  0.15916883     0.09000
H401        H  0.95171179  0.27387863  0.16954184     0.08000
N402        N  0.97543400  0.32680407  0.19863942    -0.35800
N403        N  0.98200532  0.32359963  0.20841354    -0.28000
C404        C  0.98516516  0.33400234  0.21455366    -0.03200
C405        C  0.98042414  0.34413886  0.20816155     0.05400
C406        C  0.97435292  0.33909789  0.19816778     0.03500
H407        H  0.99048996  0.33416576  0.22299560     0.08600
H408        H  0.96908477  0.34398473  0.19122975     0.07400
N409        N  0.97759195  0.45271154  0.23256249    -0.27000
N410        N  0.97214629  0.46089733  0.22529427    -0.34800
C411        C  0.97474057  0.47232262  0.22920739     0.01400
C412        C  0.98205166  0.47152702  0.23959281     0.07400
C413        C  0.98362397  0.45890723  0.24155734    -0.05700
H414        H  0.97058250  0.48060810  0.22544816     0.08100
H415        H  0.98837366  0.45457798  0.24921354     0.09300
Cu416      Cu  0.95863984  0.45704372  0.21251637     0.44200
Cu417      Cu  0.97563391  0.43353174  0.22982895     0.42000
Cu418      Cu  0.95083886  0.42637063  0.20751487     0.43900
N419        N  0.94212500  0.45222262  0.20447791    -0.34400
N420        N  0.93916761  0.44060915  0.20244775    -0.28600
C421        C  0.92740375  0.44008173  0.19856862    -0.04700
C422        C  0.92266978  0.45196986  0.19837613     0.07500
C423        C  0.93229671  0.45943748  0.20215691     0.01300
H424        H  0.92238976  0.43161038  0.19692335     0.09000
H425        H  0.93203902  0.46930285  0.20366942     0.08000
N426        N  0.96311589  0.41357872  0.21466520    -0.35800
N427        N  0.97188017  0.41573486  0.22290158    -0.28000
C428        C  0.97804050  0.40505151  0.22499790    -0.03200
C429        C  0.97296273  0.39591372  0.21759327     0.05400
C430        C  0.96353209  0.40169467  0.21126235     0.03500
H431        H  0.98596566  0.40413363  0.23100436     0.08600
H432        H  0.95751272  0.39760377  0.20447605     0.07400
N433        N  0.71055450  0.29122359  0.99083319    -0.27000
N434        N  0.71738644  0.29925387  0.98471999    -0.34800
C435        C  0.72923573  0.29788859  0.98795122     0.01400
C436        C  0.73010391  0.28864674  0.99668372     0.07400
C437        C  0.71803129  0.28460341  0.99834760    -0.05700
H438        H  0.73659798  0.30383536  0.98479598     0.08100
H439        H  0.71489297  0.27758370  0.00470913     0.09300
Cu440      Cu  0.71064105  0.31355935  0.97417837     0.44200
Cu441      Cu  0.69130718  0.29053402  0.98854830     0.42000
Cu442      Cu  0.67882287  0.31772401  0.97136623     0.43900
N443        N  0.70314066  0.32989590  0.96799566    -0.34400
N444        N  0.69115569  0.33166011  0.96689874    -0.28600
C445        C  0.68908235  0.34353447  0.96379064    -0.04700
C446        C  0.70036234  0.34952207  0.96315175     0.07500
C447        C  0.70904625  0.34054176  0.96581924     0.01300
H448        H  0.68003904  0.34765808  0.96275268     0.09000
H449        H  0.71893468  0.34170961  0.96650085     0.08000
N450        N  0.66871353  0.30229758  0.97658090    -0.35800
N451        N  0.67288128  0.29258311  0.98277851    -0.28000
C452        C  0.66370605  0.28419445  0.98360685    -0.03200
C453        C  0.65337823  0.28891268  0.97768115     0.05400
C454        C  0.65695057  0.30031261  0.97330524     0.03500
H455        H  0.66469947  0.27507327  0.98757192     0.08600
H456        H  0.65153698  0.30650642  0.96762847     0.07400
N457        N  0.74527044  0.45603499  0.96013172    -0.27000
N458        N  0.73853832  0.44951702  0.96797025    -0.34800
C459        C  0.74277884  0.45115726  0.97947799     0.01400
C460        C  0.75283449  0.45889540  0.97907069     0.07400
C461        C  0.75425582  0.46176396  0.96661935    -0.05700
H462        H  0.73941644  0.44619716  0.98746973     0.08100
H463        H  0.76149432  0.46730044  0.96256154     0.09300
Cu464      Cu  0.72589725  0.43606497  0.96334580     0.44200
Cu465      Cu  0.74190572  0.45623600  0.94088547     0.42000
Cu466      Cu  0.72047506  0.43153568  0.93223244     0.43900
N467        N  0.71742366  0.42023780  0.95699195    -0.34400
N468        N  0.71528305  0.41856503  0.94514033    -0.28600
C469        C  0.71081329  0.40714154  0.94338157    -0.04700
C470        C  0.71023605  0.40126058  0.95472676     0.07500
C471        C  0.71455457  0.40985470  0.96314984     0.01300
H472        H  0.70892069  0.40315687  0.93442844     0.09000
H473        H  0.71596501  0.40850345  0.97295017     0.08000
N474        N  0.72664440  0.44504967  0.92033923    -0.35800
N475        N  0.73451003  0.45399616  0.92295441    -0.28000
C476        C  0.73587831  0.46108184  0.91272136    -0.03200
C477        C  0.72835403  0.45637552  0.90343404     0.05400
C478        C  0.72278058  0.44620673  0.90865658     0.03500
H479        H  0.74150940  0.46929154  0.91221996     0.08600
H480        H  0.71622088  0.44010963  0.90431569     0.07400
N481        N  0.52020310  0.29710679  0.79644480    -0.27000
N482        N  0.52664877  0.29082495  0.80470682    -0.34800
C483        C  0.52414827  0.27874685  0.80358029     0.01400
C484        C  0.51556195  0.27719435  0.79427332     0.07400
C485        C  0.51326422  0.28907916  0.78993103    -0.05700
H486        H  0.52755740  0.27170055  0.80980280     0.08100
H487        H  0.50669088  0.29175264  0.78288965     0.09300
Cu488      Cu  0.53628826  0.29875373  0.81914870     0.44200
Cu489      Cu  0.52041224  0.31648016  0.79570024     0.42000
Cu490      Cu  0.52736592  0.32963788  0.82590814     0.43900
N491        N  0.54054213  0.30734505  0.83565669    -0.34400
N492        N  0.53652051  0.31849705  0.83849257    -0.28600
C493        C  0.53938867  0.32092694  0.85032260    -0.04700
C494        C  0.54559456  0.31081357  0.85514314     0.07500
C495        C  0.54614932  0.30238798  0.84556156     0.01300
H496        H  0.53692172  0.32932051  0.85511625     0.09000
H497        H  0.54964525  0.29302782  0.84598199     0.08000
N498        N  0.52335547  0.34006302  0.81038273    -0.35800
N499        N  0.52184700  0.33549971  0.79916129    -0.28000
C500        C  0.52237024  0.34489387  0.79097327    -0.03200
C501        C  0.52403048  0.35585775  0.79740903     0.05400
C502        C  0.52457009  0.35237358  0.80966259     0.03500
H503        H  0.52219019  0.34377174  0.78105124     0.08600
H504        H  0.52695078  0.35821864  0.81739791     0.07400
N505        N  0.55173592  0.46086641  0.77532298    -0.27000
N506        N  0.56193435  0.46633339  0.77914770    -0.34800
C507        C  0.56152638  0.47835146  0.77618857     0.01400
C508        C  0.55067033  0.48068559  0.76996851     0.07400
C509        C  0.54467378  0.46936367  0.76948264    -0.05700
H510        H  0.56903666  0.48472777  0.77759881     0.08100
H511        H  0.53602162  0.46739167  0.76492555     0.09300
Cu512      Cu  0.57733213  0.45726106  0.78574098     0.44200
Cu513      Cu  0.54867193  0.44187145  0.77794785     0.42000
Cu514      Cu  0.57664705  0.42470859  0.78730775     0.43900
N515        N  0.59295801  0.44681125  0.78886497    -0.34400
N516        N  0.59277656  0.43465943  0.78965667    -0.28600
C517        C  0.60435227  0.43052516  0.79149364    -0.04700
C518        C  0.61219465  0.44061066  0.79169352     0.07500
C519        C  0.60462862  0.45076514  0.78995349     0.01300
H520        H  0.60689212  0.42088976  0.79225487     0.09000
H521        H  0.60739431  0.46034765  0.78951921     0.08000
N522        N  0.55945701  0.41678993  0.78464525    -0.35800
N523        N  0.54919924  0.42282989  0.78181700    -0.28000
C524        C  0.53975483  0.41471714  0.78180659    -0.03200
C525        C  0.54439837  0.40305798  0.78444871     0.05400
C526        C  0.55687995  0.40476632  0.78619965     0.03500
H527        H  0.53023118  0.41710902  0.77998542     0.08600
H528        H  0.56355213  0.39783429  0.78885101     0.07400
N529        N  0.54708320  0.26564726  0.96152674    -0.27000
N530        N  0.54017862  0.27302373  0.95462632    -0.34800
C531        C  0.52825778  0.27012134  0.95615314     0.01400
C532        C  0.52742615  0.26029903  0.96423131     0.07400
C533        C  0.53957688  0.25764183  0.96744619    -0.05700
H534        H  0.52076244  0.27427607  0.95099171     0.08100
H535        H  0.54274016  0.25025581  0.97339841     0.09300
Cu536      Cu  0.54661185  0.28490521  0.94113364     0.44200
Cu537      Cu  0.56649094  0.26669369  0.96191799     0.42000
Cu538      Cu  0.57816377  0.28317658  0.93488571     0.43900
N539        N  0.55406499  0.29190292  0.92500906    -0.34400
N540        N  0.56590790  0.29087058  0.92248487    -0.28600
C541        C  0.56796761  0.29490103  0.91093099    -0.04700
C542        C  0.55682131  0.29868589  0.90588937     0.07500
C543        C  0.54820376  0.29661003  0.91512499     0.01300
H544        H  0.57687155  0.29478615  0.90645858     0.09000
H545        H  0.53831072  0.29770008  0.91449263     0.08000
N546        N  0.58911308  0.27667627  0.94907201    -0.35800
N547        N  0.58523649  0.27095954  0.95913583    -0.28000
C548        C  0.59503559  0.26921495  0.96669076    -0.03200
C549        C  0.60552333  0.27392634  0.96095933     0.05400
C550        C  0.60127346  0.27861983  0.94987308     0.03500
H551        H  0.59453452  0.26504585  0.97576184     0.08600
H552        H  0.60648455  0.28374235  0.94309401     0.07400
N553        N  0.72328638  0.47187013  0.79344040    -0.27000
N554        N  0.71607398  0.46525004  0.78616224    -0.34800
C555        C  0.71827597  0.46816347  0.77435050     0.01400
C556        C  0.72715364  0.47723733  0.77393427     0.07400
C557        C  0.73015479  0.47939597  0.78625109    -0.05700
H558        H  0.71289464  0.46476283  0.76665954     0.08100
H559        H  0.73644382  0.48629221  0.78975216     0.09300
Cu560      Cu  0.70115637  0.45488695  0.79164802     0.44200
Cu561      Cu  0.72238885  0.47095000  0.81287183     0.42000
Cu562      Cu  0.69457961  0.45408239  0.82277954     0.43900
N563        N  0.68433372  0.44876815  0.79795918    -0.34400
N564        N  0.68185188  0.44823882  0.80985259    -0.28600
C565        C  0.66994660  0.44514225  0.81136961    -0.04700
C566        C  0.66464928  0.44388465  0.79980600     0.07500
C567        C  0.67405273  0.44626628  0.79151240     0.01300
H568        H  0.66526818  0.44477379  0.82018313     0.09000
H569        H  0.67334371  0.44672925  0.78155825     0.08000
N570        N  0.70777619  0.46118493  0.83457180    -0.35800
N571        N  0.71789127  0.46722217  0.83144419    -0.28000
C572        C  0.72417524  0.46997110  0.84189424    -0.03200
C573        C  0.71759876  0.46549012  0.85202501     0.05400
C574        C  0.70731459  0.45999348  0.84685555     0.03500
H575        H  0.73285054  0.47483789  0.84205743     0.08600
H576        H  0.70007599  0.45507359  0.85161560     0.07400
N577        N  0.55196871  0.72458102  0.54463257    -0.27000
N578        N  0.54535137  0.72106919  0.55426788    -0.34800
C579        C  0.53338298  0.72336691  0.55207588     0.01400
C580        C  0.53224553  0.72881065  0.54060517     0.07400
C581        C  0.54425408  0.72953069  0.53614396    -0.05700
H582        H  0.52611599  0.72212779  0.55880986     0.08100
H583        H  0.54719584  0.73376346  0.52759373     0.09300
Cu584      Cu  0.55253015  0.71564128  0.57112696     0.44200
Cu585      Cu  0.57133495  0.72310642  0.54423503     0.42000
Cu586      Cu  0.58495680  0.71706564  0.57469561     0.43900
N587        N  0.56117488  0.71242344  0.58785890    -0.34400
N588        N  0.57327490  0.71269892  0.58913829    -0.28600
C589        C  0.57618615  0.71006753  0.60092124    -0.04700
C590        C  0.56535303  0.70821123  0.60740068     0.07500
C591        C  0.55601090  0.70986361  0.59884420     0.01300
H592        H  0.58547748  0.70986208  0.60456294     0.09000
H593        H  0.54619193  0.70920801  0.60046857     0.08000
N594        N  0.59509497  0.71971786  0.55873881    -0.35800
N595        N  0.59037643  0.72109418  0.54754626    -0.28000
C596        C  0.59969332  0.72067633  0.53928292    -0.03200
C597        C  0.61073987  0.71928935  0.54564871     0.05400
C598        C  0.60741421  0.71872264  0.55792903     0.03500
H599        H  0.59850677  0.72107156  0.52936877     0.08600
H600        H  0.61343995  0.71686811  0.56566871     0.07400
N601        N  0.55467393  0.54599818  0.73897635    -0.27000
N602        N  0.56242577  0.53921540  0.73244174    -0.34800
C603        C  0.56036635  0.52721972  0.73479035     0.01400
C604        C  0.55101024  0.52629938  0.74338897     0.07400
C605        C  0.54763422  0.53841685  0.74589124    -0.05700
H606        H  0.56616004  0.51976468  0.73151038     0.08100
H607        H  0.54108844  0.54149974  0.75275692     0.09300
Cu608      Cu  0.57778625  0.54627392  0.72358162     0.44200
Cu609      Cu  0.55537528  0.56528380  0.73902899     0.42000
Cu610      Cu  0.58585128  0.57741047  0.73103681     0.43900
N611        N  0.59512948  0.55357504  0.72037961    -0.34400
N612        N  0.59841694  0.56479977  0.72378233    -0.28600
C613        C  0.61056385  0.56623585  0.72159499    -0.04700
C614        C  0.61508570  0.55540555  0.71645950     0.07500
C615        C  0.60501374  0.54760513  0.71586566     0.01300
H616        H  0.61571095  0.57453300  0.72358492     0.09000
H617        H  0.60496246  0.53808110  0.71288065     0.08000
N618        N  0.57056392  0.58837524  0.73501222    -0.35800
N619        N  0.55935591  0.58407928  0.73719574    -0.28000
C620        C  0.55136774  0.59364522  0.73738255    -0.03200
C621        C  0.55791794  0.60445826  0.73552577     0.05400
C622        C  0.57002509  0.60074138  0.73404670     0.03500
H623        H  0.54149220  0.59276868  0.73842331     0.08600
H624        H  0.57775064  0.60653960  0.73156091     0.07400
N625        N  0.72323941  0.51156898  0.71006619    -0.27000
N626        N  0.71638685  0.51850594  0.71742713    -0.34800
C627        C  0.71858014  0.51539609  0.72921225     0.01400
C628        C  0.72706221  0.50588419  0.72948195     0.07400
C629        C  0.72983306  0.50365987  0.71713853    -0.05700
H630        H  0.71347226  0.51901427  0.73697554     0.08100
H631        H  0.73577535  0.49649551  0.71354235     0.09300
Cu632      Cu  0.70184689  0.52964031  0.71199981     0.44200
Cu633      Cu  0.72226623  0.51250027  0.69067431     0.42000
Cu634      Cu  0.69327111  0.52664655  0.68102031     0.43900
N635        N  0.68485200  0.53564346  0.70569976    -0.34400
N636        N  0.68148255  0.53412314  0.69410915    -0.28600
C637        C  0.66968169  0.53772502  0.69281848    -0.04700
C638        C  0.66535168  0.54173150  0.70419339     0.07500
C639        C  0.67528905  0.54024154  0.71215396     0.01300
H640        H  0.66458929  0.53727588  0.68424250     0.09000
H641        H  0.67541778  0.54175608  0.72200096     0.08000
N642        N  0.70678784  0.52055163  0.66891721    -0.35800
N643        N  0.71753443  0.51570523  0.67209620    -0.28000
C644        C  0.72420302  0.51376299  0.66171476    -0.03200
C645        C  0.71722947  0.51749856  0.65154487     0.05400
C646        C  0.70628478  0.52172230  0.65660829     0.03500
H647        H  0.73342622  0.50997603  0.66161616     0.08600
H648        H  0.69860305  0.52586393  0.65173557     0.07400
N649        N  0.53751718  0.71237092  0.71885866    -0.27000
N650        N  0.54387563  0.71880188  0.71067264    -0.34800
C651        C  0.54062079  0.73072934  0.71130926     0.01400
C652        C  0.53156229  0.73204716  0.72012943     0.07400
C653        C  0.52971868  0.72017542  0.72471584    -0.05700
H654        H  0.54368107  0.73773344  0.70487923     0.08100
H655        H  0.52283168  0.71735377  0.73135348     0.09300
Cu656      Cu  0.55366083  0.71125332  0.69623417     0.44200
Cu657      Cu  0.53938251  0.69304001  0.72037681     0.42000
Cu658      Cu  0.55154219  0.67915804  0.69179647     0.43900
N659        N  0.55754877  0.70302594  0.67952761    -0.34400
N660        N  0.55684407  0.69099502  0.67779291    -0.28600
C661        C  0.55880064  0.68852004  0.66578172    -0.04700
C662        C  0.56055641  0.69960194  0.65967658     0.07500
C663        C  0.55968366  0.70859791  0.66866185     0.01300
H664        H  0.55822424  0.67943775  0.66168453     0.09000
H665        H  0.56010442  0.71849262  0.66733063     0.08000
N666        N  0.54687446  0.66928391  0.70746337    -0.35800
N667        N  0.54317060  0.67406804  0.71808124    -0.28000
C668        C  0.54236801  0.66484075  0.72646455    -0.03200
C669        C  0.54539533  0.65379965  0.72068145     0.05400
C670        C  0.54819518  0.65702488  0.70869530     0.03500
H671        H  0.53981253  0.66606393  0.73603424     0.08600
H672        H  0.55150336  0.65096208  0.70151075     0.07400
N673        N  0.74509052  0.53387113  0.54449288    -0.27000
N674        N  0.73895659  0.54164207  0.53731903    -0.34800
C675        C  0.74280703  0.54047689  0.52562875     0.01400
C676        C  0.75188901  0.53156095  0.52518310     0.07400
C677        C  0.75323906  0.52762945  0.53736788    -0.05700
H678        H  0.73959686  0.54617178  0.51807740     0.08100
H679        H  0.75967477  0.52076617  0.54077591     0.09300
Cu680      Cu  0.72659395  0.55480526  0.54319842     0.44200
Cu681      Cu  0.74141998  0.53243067  0.56361786     0.42000
Cu682      Cu  0.71855968  0.55595369  0.57407255     0.43900
N683        N  0.71736057  0.56971735  0.55045906    -0.34400
N684        N  0.71434770  0.57036824  0.56221778    -0.28600
C685        C  0.71010332  0.58180458  0.56466090    -0.04700
C686        C  0.71060696  0.58869211  0.55385206     0.07500
C687        C  0.71521508  0.58065229  0.54505642     0.01300
H688        H  0.70779104  0.58511091  0.57378774     0.09000
H689        H  0.71754314  0.58277770  0.53557384     0.08000
N690        N  0.72491439  0.54126153  0.58459423    -0.35800
N691        N  0.73344098  0.53307013  0.58143070    -0.28000
C692        C  0.73523892  0.52533143  0.59110982    -0.03200
C693        C  0.72729968  0.52876203  0.60059113     0.05400
C694        C  0.72097806  0.53885648  0.59607271     0.03500
H695        H  0.74156820  0.51760342  0.59112555     0.08600
H696        H  0.71403023  0.54418394  0.60085647     0.07400
N697        N  0.71784589  0.70146984  0.52381231    -0.27000
N698        N  0.72437662  0.69219858  0.52837348    -0.34800
C699        C  0.73621539  0.69343061  0.52502209     0.01400
C700        C  0.73733634  0.70387044  0.51781410     0.07400
C701        C  0.72546947  0.70873964  0.51713541    -0.05700
H702        H  0.74335443  0.68671032  0.52697073     0.08100
H703        H  0.72255976  0.71676818  0.51193830     0.09300
Cu704      Cu  0.71704123  0.67686508  0.53695907     0.44200
Cu705      Cu  0.69869004  0.70292664  0.52662888     0.42000
Cu706      Cu  0.68465198  0.67384249  0.53766611     0.43900
N707        N  0.70844381  0.66074013  0.54229858    -0.34400
N708        N  0.69634660  0.65952027  0.54264803    -0.28600
C709        C  0.69358307  0.64779643  0.54570171    -0.04700
C710        C  0.70451606  0.64130641  0.54711756     0.07500
C711        C  0.71373779  0.64983348  0.54491850     0.01300
H712        H  0.68432702  0.64411124  0.54617905     0.09000
H713        H  0.72357557  0.64817093  0.54486758     0.08000
N714        N  0.67488767  0.68979195  0.53349810    -0.35800
N715        N  0.67977857  0.70052169  0.53029832    -0.28000
C716        C  0.67066608  0.70904161  0.52981567    -0.03200
C717        C  0.65956639  0.70327501  0.53251407     0.05400
C718        C  0.66264161  0.69112058  0.53479066     0.03500
H719        H  0.67201463  0.71870952  0.52773325     0.08600
H720        H  0.65649043  0.68387539  0.53779039     0.07400
N721        N  0.80758718  0.51751898  0.29435518    -0.27000
N722        N  0.81478474  0.52511926  0.28809266    -0.34800
C723        C  0.81359424  0.52289761  0.27596394     0.01400
C724        C  0.80543410  0.51327342  0.27432529     0.07400
C725        C  0.80179283  0.51005486  0.28622707    -0.05700
H726        H  0.81922680  0.52715559  0.26890370     0.08100
H727        H  0.79584764  0.50248107  0.28881093     0.09300
Cu728      Cu  0.82869016  0.53564898  0.29578207     0.44200
Cu729      Cu  0.80736102  0.51704225  0.31379507     0.42000
Cu730      Cu  0.83661394  0.52726361  0.32650786     0.43900
N731        N  0.84554938  0.53995841  0.30360125    -0.34400
N732        N  0.84866159  0.53630054  0.31480561    -0.28600
C733        C  0.86066856  0.53867051  0.31665933    -0.04700
C734        C  0.86540100  0.54407009  0.30607544     0.07500
C735        C  0.85550821  0.54476643  0.29799490     0.01300
H736        H  0.86569413  0.53612677  0.32491021     0.09000
H737        H  0.85575180  0.54757614  0.28841367     0.08000
N738        N  0.82201032  0.52132808  0.33722897    -0.35800
N739        N  0.81100060  0.51844096  0.33284380    -0.28000
C740        C  0.80315324  0.51729518  0.34245312    -0.03200
C741        C  0.80965461  0.51924641  0.35333390     0.05400
C742        C  0.82155276  0.52178212  0.34961699     0.03500
H743        H  0.79335747  0.51559492  0.34158344     0.08600
H744        H  0.82907726  0.52473349  0.35542535     0.07400
N745        N  0.78615782  0.53237182  0.46136211    -0.27000
N746        N  0.79074304  0.54166681  0.46779360    -0.34800
C747        C  0.78780254  0.54032908  0.47973336     0.01400
C748        C  0.78079531  0.52983285  0.48107773     0.07400
C749        C  0.77978214  0.52503855  0.46919747    -0.05700
H750        H  0.78953448  0.54722679  0.48673969     0.08100
H751        H  0.77433477  0.51717090  0.46639819     0.09300
Cu752      Cu  0.79770224  0.55774595  0.46043663     0.44200
Cu753      Cu  0.78834210  0.53106709  0.44202529     0.42000
Cu754      Cu  0.79675739  0.56110883  0.42846377     0.43900
N755        N  0.80065539  0.57454405  0.45200024    -0.34400
N756        N  0.80046900  0.57583255  0.43989920    -0.28600
C757        C  0.80254289  0.58772587  0.43701629    -0.04700
C758        C  0.80390039  0.59424005  0.44791089     0.07500
C759        C  0.80257661  0.58560243  0.45722578     0.01300
H760        H  0.80266512  0.59139955  0.42772850     0.09000
H761        H  0.80295031  0.58723677  0.46707347     0.08000
N762        N  0.79467936  0.54501971  0.41853899    -0.35800
N763        N  0.79231588  0.53394618  0.42314263    -0.28000
C764        C  0.79299645  0.52565129  0.41383142    -0.03200
C765        C  0.79562191  0.53194725  0.40294508     0.05400
C766        C  0.79661896  0.54414176  0.40635451     0.03500
H767        H  0.79165993  0.51581365  0.41488066     0.08600
H768        H  0.79906496  0.55182015  0.40045903     0.07400
N769        N  0.99752515  0.70077271  0.29719942    -0.27000
N770        N  0.99226858  0.70738261  0.30600721    -0.34800
C771        C  0.99519882  0.71931340  0.30451858     0.01400
C772        C  0.00288518  0.72040176  0.29443758     0.07400
C773        C  0.00424771  0.70842918  0.29001922    -0.05700
H774        H  0.99284694  0.72653098  0.31101172     0.08100
H775        H  0.01009028  0.70545601  0.28250497     0.09300
Cu776      Cu  0.98397513  0.70008428  0.32154099     0.44200
Cu777      Cu  0.99577721  0.68148829  0.29633759     0.42000
Cu778      Cu  0.98397733  0.66763033  0.32520339     0.43900
N779        N  0.97957505  0.69165545  0.33808946    -0.34400
N780        N  0.97942312  0.67955884  0.33954887    -0.28600
C781        C  0.97668658  0.67696718  0.35140636    -0.04700
C782        C  0.97529346  0.68800520  0.35773869     0.07500
C783        C  0.97717095  0.69710612  0.34895976     0.01300
H784        H  0.97619365  0.66773974  0.35524041     0.09000
H785        H  0.97690318  0.70698520  0.35036552     0.08000
N786        N  0.98843611  0.65772214  0.30935630    -0.35800
N787        N  0.99216187  0.66259344  0.29877720    -0.28000
C788        C  0.99297110  0.65350350  0.29029118    -0.03200
C789        C  0.98983870  0.64240852  0.29588402     0.05400
C790        C  0.98706741  0.64547409  0.30794418     0.03500
H791        H  0.99554839  0.65487493  0.28075467     0.08600
H792        H  0.98372732  0.63931402  0.31504755     0.07400
N793        N  0.96855062  0.72722804  0.46746687    -0.27000
N794        N  0.97645655  0.72149329  0.46013225    -0.34800
C795        C  0.98795319  0.72521689  0.46273845     0.01400
C796        C  0.98744425  0.73388725  0.47203659     0.07400
C797        C  0.97495730  0.73505042  0.47476064    -0.05700
H798        H  0.99601776  0.72259212  0.45748187     0.08100
H799        H  0.97082119  0.74143057  0.48123456     0.09300
Cu800      Cu  0.97183405  0.71090485  0.44496433     0.44200
Cu801      Cu  0.94933995  0.72436461  0.46646940     0.42000
Cu802      Cu  0.94062102  0.70572883  0.43924799     0.43900
N803        N  0.96583172  0.70315183  0.42860496    -0.34400
N804        N  0.95407354  0.70094401  0.42644996    -0.28600
C805        C  0.95283367  0.69665665  0.41484382    -0.04700
C806        C  0.96440907  0.69631299  0.40939618     0.07500
C807        C  0.97240203  0.70054963  0.41841453     0.01300
H808        H  0.94410128  0.69468906  0.41045601     0.09000
H809        H  0.98222398  0.70202676  0.41750399     0.08000
N810        N  0.92839921  0.71202384  0.45263675    -0.35800
N811        N  0.93117448  0.71867968  0.46248548    -0.28000
C812        C  0.92067317  0.72077414  0.46892503    -0.03200
C813        C  0.91084211  0.71523945  0.46275413     0.05400
C814        C  0.91624996  0.70979729  0.45252613     0.03500
H815        H  0.92025108  0.72601711  0.47739897     0.08600
H816        H  0.91173308  0.70432706  0.44551628     0.07400
N817        N  0.97805616  0.53485312  0.27410163    -0.27000
N818        N  0.96880402  0.52860856  0.27899192    -0.34800
C819        C  0.97021449  0.51654597  0.27654108     0.01400
C820        C  0.98077554  0.51494454  0.26959057     0.07400
C821        C  0.98549893  0.52680196  0.26815839    -0.05700
H822        H  0.96334476  0.50961531  0.27857005     0.08100
H823        H  0.99336694  0.52944706  0.26261632     0.09300
Cu824      Cu  0.95288680  0.53654991  0.28586258     0.44200
Cu825      Cu  0.97894358  0.55425158  0.27474834     0.42000
Cu826      Cu  0.94852817  0.56836104  0.27911671     0.43900
N827        N  0.93622156  0.54549823  0.28839802    -0.34400
N828        N  0.93443773  0.55721227  0.28555698    -0.28600
C829        C  0.92265484  0.56024550  0.28801913    -0.04700
C830        C  0.91671817  0.54990646  0.29267384     0.07500
C831        C  0.92564347  0.54071504  0.29267085     0.01300
H832        H  0.91877928  0.56935879  0.28670728     0.09000
H833        H  0.92454784  0.53114644  0.29531368     0.08000
N834        N  0.96467257  0.57828492  0.27689691    -0.35800
N835        N  0.97584834  0.57338667  0.27624817    -0.28000
C836        C  0.98419815  0.58256360  0.27731141    -0.03200
C837        C  0.97792117  0.59370981  0.27841332     0.05400
C838        C  0.96560355  0.59058528  0.27806842     0.03500
H839        H  0.99407422  0.58119732  0.27767392     0.08600
H840        H  0.95785410  0.59672667  0.27958965     0.07400
N841        N  0.80193181  0.70372837  0.48462318    -0.27000
N842        N  0.79506854  0.69622940  0.47788483    -0.34800
C843        C  0.78316392  0.69763888  0.48091358     0.01400
C844        C  0.78227244  0.70629007  0.49018834     0.07400
C845        C  0.79438708  0.70995847  0.49238021    -0.05700
H846        H  0.77579626  0.69193141  0.47740081     0.08100
H847        H  0.79751268  0.71632322  0.49940079     0.09300
Cu848      Cu  0.80160253  0.68202015  0.46710822     0.44200
Cu849      Cu  0.82138592  0.70417691  0.48316300     0.42000
Cu850      Cu  0.83332101  0.67699185  0.46644191     0.43900
N851        N  0.80902256  0.66570308  0.46079801    -0.34400
N852        N  0.82101701  0.66372582  0.46044305    -0.28600
C853        C  0.82310575  0.65197208  0.45700806    -0.04700
C854        C  0.81181106  0.64626501  0.45535942     0.07500
C855        C  0.80309393  0.65525585  0.45783943     0.01300
H856        H  0.83211535  0.64768890  0.45653803     0.09000
H857        H  0.79317846  0.65416766  0.45796749     0.08000
N858        N  0.84403665  0.69156671  0.47250059    -0.35800
N859        N  0.84014696  0.70150014  0.47847254    -0.28000
C860        C  0.84983187  0.70927911  0.47981415    -0.03200
C861        C  0.86015172  0.70392539  0.47434409     0.05400
C862        C  0.85604916  0.69274841  0.46989407     0.03500
H863        H  0.84924702  0.71840786  0.48378796     0.08600
H864        H  0.86133123  0.68613221  0.46458777     0.07400
N865        N  0.22243180  0.97370540  0.30031544    -0.27000
N866        N  0.21522112  0.96617598  0.29400047    -0.34800
C867        C  0.21633733  0.96859787  0.28189955     0.01400
C868        C  0.22446854  0.97827933  0.28035649     0.07400
C869        C  0.22820017  0.98127146  0.29227607    -0.05700
H870        H  0.21062423  0.96448598  0.27483053     0.08100
H871        H  0.23412209  0.98881940  0.29497005     0.09300
Cu872      Cu  0.20137444  0.95551405  0.30161884     0.44200
Cu873      Cu  0.22260050  0.97428324  0.31968589     0.42000
Cu874      Cu  0.19373337  0.96334021  0.33256079     0.43900
N875        N  0.18468182  0.95087853  0.30958726    -0.34400
N876        N  0.18167312  0.95427603  0.32088723    -0.28600
C877        C  0.16974840  0.95161186  0.32287623    -0.04700
C878        C  0.16496401  0.94629188  0.31228143     0.07500
C879        C  0.17474171  0.94595977  0.30405222     0.01300
H880        H  0.16481825  0.95384614  0.33125898     0.09000
H881        H  0.17443426  0.94325961  0.29444865     0.08000
N882        N  0.20824387  0.96972651  0.34316623    -0.35800
N883        N  0.21911315  0.97297847  0.33870206    -0.28000
C884        C  0.22702046  0.97436014  0.34823083    -0.03200
C885        C  0.22071274  0.97208139  0.35915590     0.05400
C886        C  0.20885060  0.96923319  0.35554036     0.03500
H887        H  0.23673633  0.97638460  0.34726248     0.08600
H888        H  0.20147617  0.96600298  0.36141556     0.07400
N889        N  0.23895483  0.95968812  0.46738847    -0.27000
N890        N  0.23231494  0.95167086  0.47373697    -0.34800
C891        C  0.23479995  0.95287352  0.48581284     0.01400
C892        C  0.24358981  0.96195580  0.48729473     0.07400
C893        C  0.24608559  0.96604677  0.47537770    -0.05700
H894        H  0.23139399  0.94669723  0.49288219     0.08100
H895        H  0.25301870  0.97269431  0.47267923     0.09300
Cu896      Cu  0.22301358  0.93696902  0.46600057     0.44200
Cu897      Cu  0.23866809  0.96027755  0.44800487     0.42000
Cu898      Cu  0.23079063  0.93033872  0.43476876     0.43900
N899        N  0.21959171  0.92007737  0.45785245    -0.34400
N900        N  0.22298104  0.91738225  0.44647161    -0.28600
C901        C  0.22042145  0.90544998  0.44422089    -0.04700
C902        C  0.21512615  0.90037949  0.45472006     0.07500
C903        C  0.21481897  0.90996196  0.46318186     0.01300
H904        H  0.22231488  0.90082362  0.43559115     0.09000
H905        H  0.21187067  0.90953655  0.47270656     0.08000
N906        N  0.23469634  0.94591259  0.42435980    -0.35800
N907        N  0.23669699  0.95703014  0.42898888    -0.28000
C908        C  0.23665100  0.96528224  0.41962949    -0.03200
C909        C  0.23480148  0.95896894  0.40864138     0.05400
C910        C  0.23363542  0.94674405  0.41202916     0.03500
H911        H  0.23755728  0.97515406  0.42075872     0.08600
H912        H  0.23128200  0.93912011  0.40604928     0.07400
N913        N  0.05239626  0.95136025  0.28038612    -0.27000
N914        N  0.06106000  0.95770349  0.28614381    -0.34800
C915        C  0.05942101  0.96979600  0.28396702     0.01400
C916        C  0.04938837  0.97129960  0.27624248     0.07400
C917        C  0.04512349  0.95937196  0.27415899    -0.05700
H918        H  0.06588088  0.97687816  0.28670560     0.08100
H919        H  0.03776169  0.95667076  0.26801486     0.09300
Cu920      Cu  0.07684200  0.95001376  0.29363001     0.44200
Cu921      Cu  0.05223509  0.93197141  0.28013685     0.42000
Cu922      Cu  0.08282065  0.91870665  0.28572884     0.43900
N923        N  0.09384943  0.94172507  0.29618786    -0.34400
N924        N  0.09622260  0.93023669  0.29291797    -0.28600
C925        C  0.10816839  0.92774324  0.29519272    -0.04700
C926        C  0.11360375  0.93820648  0.30015339     0.07500
C927        C  0.10420364  0.94690034  0.30056339     0.01300
H928        H  0.11252954  0.91894657  0.29341089     0.09000
H929        H  0.10485525  0.95643353  0.30342405     0.08000
N930        N  0.06719662  0.90835322  0.28214953    -0.35800
N931        N  0.05593243  0.91294025  0.28096344    -0.28000
C932        C  0.04782962  0.90350189  0.28115479    -0.03200
C933        C  0.05436439  0.89251740  0.28224295     0.05400
C934        C  0.06657882  0.89598873  0.28282563     0.03500
H935        H  0.03790334  0.90457462  0.28103964     0.08600
H936        H  0.07438361  0.89002068  0.28469744     0.07400
N937        N  0.04979255  0.77013991  0.47157081    -0.27000
N938        N  0.04335638  0.77522358  0.46250864    -0.34800
C939        C  0.03143462  0.77215632  0.46367926     0.01400
C940        C  0.03013434  0.76457216  0.47384348     0.07400
C941        C  0.04201008  0.76339780  0.47859716    -0.05700
H942        H  0.02443410  0.77425612  0.45687915     0.08100
H943        H  0.04486091  0.75757877  0.48622545     0.09300
Cu944      Cu  0.05088727  0.78318597  0.44692523     0.44200
Cu945      Cu  0.06909848  0.77199741  0.47297567     0.42000
Cu946      Cu  0.08337169  0.78204695  0.44399035     0.43900
N947        N  0.05976842  0.78649764  0.43039131    -0.34400
N948        N  0.07188517  0.78622631  0.42926117    -0.28600
C949        C  0.07486819  0.78814332  0.41735463    -0.04700
C950        C  0.06406013  0.78941535  0.41066975     0.07500
C951        C  0.05467222  0.78831888  0.41922668     0.01300
H952        H  0.08417407  0.78806727  0.41375051     0.09000
H953        H  0.04485898  0.78861964  0.41744728     0.08000
N954        N  0.09308491  0.77854575  0.46011668    -0.35800
N955        N  0.08810332  0.77552688  0.47085620    -0.28000
C956        C  0.09712005  0.77538357  0.47949252    -0.03200
C957        C  0.10826203  0.77819402  0.47380023     0.05400
C958        C  0.10528481  0.78009004  0.46155190     0.03500
H959        H  0.09567644  0.77347327  0.48917724     0.08600
H960        H  0.11147561  0.78299211  0.45428542     0.07400
N961        N  0.03595219  0.78466290  0.29759304    -0.27000
N962        N  0.04154894  0.77790236  0.30609652    -0.34800
C963        C  0.03876203  0.76596965  0.30440198     0.01400
C964        C  0.03080471  0.76502801  0.29450877     0.07400
C965        C  0.02915764  0.77709329  0.29040979    -0.05700
H966        H  0.04134893  0.75864198  0.31069079     0.08100
H967        H  0.02303442  0.78018584  0.28314375     0.09300
Cu968      Cu  0.04986410  0.78488617  0.32172047     0.44200
Cu969      Cu  0.03723013  0.80400191  0.29721338     0.42000
Cu970      Cu  0.04782270  0.81716389  0.32658934     0.43900
N971        N  0.05367412  0.79293178  0.33855501    -0.34400
N972        N  0.05306884  0.80496144  0.34038814    -0.28600
C973        C  0.05558683  0.80733924  0.35231037    -0.04700
C974        C  0.05768689  0.79621947  0.35827434     0.07500
C975        C  0.05631466  0.78727888  0.34928862     0.01300
H976        H  0.05535704  0.81642321  0.35644023     0.09000
H977        H  0.05698003  0.77737926  0.35050090     0.08000
N978        N  0.04361341  0.82749535  0.31101690    -0.35800
N979        N  0.04037427  0.82289378  0.30017789    -0.28000
C980        C  0.03979158  0.83222553  0.29191649    -0.03200
C981        C  0.04258396  0.84317932  0.29793485     0.05400
C982        C  0.04489777  0.83978204  0.31000845     0.03500
H983        H  0.03760701  0.83110880  0.28223395     0.08600
H984        H  0.04791225  0.84574508  0.31741074     0.07400
N985        N  0.21575033  0.79188036  0.49404980    -0.27000
N986        N  0.22227265  0.79953528  0.48714624    -0.34800
C987        C  0.23433153  0.79786868  0.48946075     0.01400
C988        C  0.23564366  0.78880327  0.49836328     0.07400
C989        C  0.22362636  0.78526672  0.50113549    -0.05700
H990        H  0.24157055  0.80357685  0.48566039     0.08100
H991        H  0.22080810  0.77867597  0.50811008     0.09300
Cu992      Cu  0.21484578  0.81382792  0.47682498     0.44200
Cu993      Cu  0.19631858  0.79170743  0.49378640     0.42000
Cu994      Cu  0.18297900  0.82034736  0.48192537     0.43900
N995        N  0.20650176  0.83005241  0.47108566    -0.34400
N996        N  0.19486407  0.83273049  0.47347741    -0.28600
C997        C  0.19259088  0.84443991  0.46999067    -0.04700
C998        C  0.20333280  0.84936725  0.46512010     0.07500
C999        C  0.21194936  0.83994629  0.46597265     0.01300
H1000       H  0.18386921  0.84911590  0.47124069     0.09000
H1001       H  0.22167480  0.84048922  0.46383642     0.08000
N1002       N  0.17258705  0.80536278  0.48771064    -0.35800
N1003       N  0.17725264  0.79463656  0.49129341    -0.28000
C1004       C  0.16794311  0.78640962  0.49219335    -0.03200
C1005       C  0.15693994  0.79236384  0.48932200     0.05400
C1006       C  0.16029110  0.80433087  0.48653420     0.03500
H1007       H  0.16913391  0.77672169  0.49430186     0.08600
H1008       H  0.15434154  0.81150061  0.48294188     0.07400
N1009       N  0.05054272  0.03625535  0.24306938    -0.27000
N1010       N  0.05805725  0.02951925  0.23617763    -0.34800
C1011       C  0.05684471  0.01756792  0.23926155     0.01400
C1012       C  0.04834168  0.01660975  0.24869919     0.07400
C1013       C  0.04454553  0.02866304  0.25092726    -0.05700
H1014       H  0.06254522  0.01021898  0.23564641     0.08100
H1015       H  0.03827554  0.03172895  0.25804855     0.09300
Cu1016     Cu  0.07200135  0.03646943  0.22505090     0.44200
Cu1017     Cu  0.04975337  0.05563622  0.24218330     0.42000
Cu1018     Cu  0.07828496  0.06807063  0.23009047     0.43900
N1019       N  0.08821322  0.04472818  0.21912696    -0.34400
N1020       N  0.09071386  0.05639543  0.22151729    -0.28600
C1021       C  0.10236972  0.05882386  0.21810423    -0.04700
C1022       C  0.10752858  0.04814276  0.21330863     0.07500
C1023       C  0.09823430  0.03938908  0.21409138     0.01300
H1024       H  0.10687267  0.06762073  0.21941374     0.09000
H1025       H  0.09896329  0.02965539  0.21199845     0.08000
N1026       N  0.06369572  0.07888613  0.23595031    -0.35800
N1027       N  0.05290932  0.07461533  0.23967413    -0.28000
C1028       C  0.04503780  0.08424760  0.24080009    -0.03200
C1029       C  0.05128849  0.09505356  0.23777902     0.05400
C1030       C  0.06307709  0.09120214  0.23483481     0.03500
H1031       H  0.03542645  0.08340867  0.24330715     0.08600
H1032       H  0.07046272  0.09686400  0.23124451     0.07400
N1033       N  0.21750700  0.01105378  0.21544011    -0.27000
N1034       N  0.20953155  0.01727780  0.22227696    -0.34800
C1035       C  0.21121191  0.01428814  0.23420357     0.01400
C1036       C  0.22054674  0.00560973  0.23500196     0.07400
C1037       C  0.22431408  0.00373340  0.22290217    -0.05700
H1038       H  0.20541002  0.01747707  0.24166326     0.08100
H1039       H  0.23120797  0.99724948  0.21971990     0.09300
Cu1040     Cu  0.19483282  0.02744038  0.21528863     0.44200
Cu1041     Cu  0.21795078  0.01218733  0.19615237     0.42000
Cu1042     Cu  0.18894565  0.02257614  0.18312892     0.43900
N1043       N  0.17843169  0.03257756  0.20678191    -0.34400
N1044       N  0.17606829  0.03021342  0.19505982    -0.28600
C1045       C  0.16428763  0.03325022  0.19260393    -0.04700
C1046       C  0.15895284  0.03781957  0.20328246     0.07500
C1047       C  0.16822619  0.03725707  0.21209035     0.01300
H1048       H  0.15986334  0.03199095  0.18373395     0.09000
H1049       H  0.16742088  0.03938163  0.22179613     0.08000
N1050       N  0.20406550  0.01750153  0.17254958    -0.35800
N1051       N  0.21494423  0.01447744  0.17719723    -0.28000
C1052       C  0.22321437  0.01396429  0.16791039    -0.03200
C1053       C  0.21714736  0.01647425  0.15690812     0.05400
C1054       C  0.20505493  0.01869459  0.16023824     0.03500
H1055       H  0.23299924  0.01244875  0.16912785     0.08600
H1056       H  0.19775295  0.02200608  0.15427611     0.07400
N1057       N  0.02730264  0.20132556  0.21477321    -0.27000
N1058       N  0.03335035  0.20734673  0.20605834    -0.34800
C1059       C  0.03001318  0.21927184  0.20617172     0.01400
C1060       C  0.02130824  0.22105338  0.21531304     0.07400
C1061       C  0.01980407  0.20941511  0.22060882    -0.05700
H1062       H  0.03312926  0.22600289  0.19948467     0.08100
H1063       H  0.01356008  0.20693410  0.22798855     0.09300
Cu1064     Cu  0.04405688  0.19925063  0.19257146     0.44200
Cu1065     Cu  0.02935635  0.18216073  0.21750919     0.42000
Cu1066     Cu  0.04391756  0.16676721  0.19105452     0.43900
N1067       N  0.04960083  0.18975994  0.17704237    -0.34400
N1068       N  0.04926336  0.17761901  0.17629431    -0.28600
C1069       C  0.05178754  0.17421290  0.16462934    -0.04700
C1070       C  0.05372862  0.18478218  0.15766323     0.07500
C1071       C  0.05227276  0.19445542  0.16589461     0.01300
H1072       H  0.05141123  0.16480287  0.16133818     0.09000
H1073       H  0.05254371  0.20422564  0.16384132     0.08000
N1074       N  0.03904925  0.15792060  0.20726551    -0.35800
N1075       N  0.03400050  0.16325751  0.21703202    -0.28000
C1076       C  0.03305827  0.15472874  0.22610937    -0.03200
C1077       C  0.03759779  0.14358326  0.22170437     0.05400
C1078       C  0.04134355  0.14600305  0.20980081     0.03500
H1079       H  0.02963393  0.15657193  0.23531281     0.08600
H1080       H  0.04585811  0.13965275  0.20356035     0.07400
N1081       N  0.04512768  0.21998355  0.04847714    -0.27000
N1082       N  0.03837371  0.21385850  0.05659506    -0.34800
C1083       C  0.02652843  0.21725554  0.05555161     0.01400
C1084       C  0.02556604  0.22610791  0.04647189     0.07400
C1085       C  0.03756827  0.22774010  0.04219480    -0.05700
H1086       H  0.01922585  0.21405040  0.06153544     0.08100
H1087       H  0.04057588  0.23418665  0.03518762     0.09300
Cu1088     Cu  0.04503978  0.20264628  0.07043678     0.44200
Cu1089     Cu  0.06440913  0.21717680  0.04692595     0.42000
Cu1090     Cu  0.07612721  0.19569873  0.07111685     0.43900
N1091       N  0.05304818  0.19441918  0.08559174    -0.34400
N1092       N  0.06484552  0.19149164  0.08586046    -0.28600
C1093       C  0.06786553  0.18776274  0.09733052    -0.04700
C1094       C  0.05743088  0.18861041  0.10463774     0.07500
C1095       C  0.04821251  0.19283449  0.09687501     0.01300
H1096       H  0.07715012  0.18568214  0.10037683     0.09000
H1097       H  0.03887797  0.19531439  0.09941234     0.08000
N1098       N  0.08652431  0.20289841  0.05685657    -0.35800
N1099       N  0.08287245  0.21085606  0.04829245    -0.28000
C1100       C  0.09263841  0.21334454  0.04089261    -0.03200
C1101       C  0.10272403  0.20652079  0.04502776     0.05400
C1102       C  0.09842050  0.20006998  0.05510292     0.03500
H1103       H  0.09231127  0.21928913  0.03286236     0.08600
H1104       H  0.10357773  0.19365245  0.06075019     0.07400
N1105       N  0.21202371  0.20569737  0.02511859    -0.27000
N1106       N  0.21987759  0.19877289  0.03144479    -0.34800
C1107       C  0.23146214  0.20181279  0.02841691     0.01400
C1108       C  0.23111355  0.21096820  0.01957681     0.07400
C1109       C  0.21860932  0.21315601  0.01758947    -0.05700
H1110       H  0.23954383  0.19686832  0.03156665     0.08100
H1111       H  0.21461573  0.21933532  0.01080761     0.09300
Cu1112     Cu  0.21545396  0.18339312  0.04173182     0.44200
Cu1113     Cu  0.19268215  0.20391676  0.02679466     0.42000
Cu1114     Cu  0.18450223  0.17646276  0.04510743     0.43900
N1115       N  0.20979805  0.16678922  0.04907577    -0.34400
N1116       N  0.19802842  0.16426288  0.05069174    -0.28600
C1117       C  0.19691802  0.15263744  0.05490005    -0.04700
C1118       C  0.20861255  0.14758060  0.05580107     0.07500
C1119       C  0.21655423  0.15678325  0.05195584     0.01300
H1120       H  0.18824459  0.14796284  0.05638068     0.09000
H1121       H  0.22646116  0.15611010  0.05090316     0.08000
N1122       N  0.17196947  0.18909925  0.03826117    -0.35800
N1123       N  0.17444631  0.19910307  0.03170463    -0.28000
C1124       C  0.16365638  0.20497060  0.02928383    -0.03200
C1125       C  0.15403431  0.19816387  0.03441936     0.05400
C1126       C  0.15979977  0.18828688  0.04009239     0.03500
H1127       H  0.16285657  0.21351184  0.02414378     0.08600
H1128       H  0.15552677  0.18109819  0.04552863     0.07400
N1129       N  0.23821030  0.03482888  0.05042845    -0.27000
N1130       N  0.23295287  0.04386096  0.04410769    -0.34800
C1131       C  0.23513708  0.04230023  0.03203044     0.01400
C1132       C  0.24227827  0.03185154  0.03047992     0.07400
C1133       C  0.24416644  0.02737540  0.04239276    -0.05700
H1134       H  0.23271500  0.04897841  0.02499731     0.08100
H1135       H  0.24990307  0.01962601  0.04504563     0.09300
Cu1136     Cu  0.22572518  0.05963909  0.05185936     0.44200
Cu1137     Cu  0.23742670  0.03413185  0.06981684     0.42000
Cu1138     Cu  0.22861971  0.06374479  0.08419752     0.43900
N1139       N  0.22275838  0.07637402  0.06037151    -0.34400
N1140       N  0.22378086  0.07802132  0.07239661    -0.28600
C1141       C  0.22166708  0.08998516  0.07499851    -0.04700
C1142       C  0.21944934  0.09615214  0.06400627     0.07500
C1143       C  0.22019298  0.08721926  0.05494081     0.01300
H1144       H  0.22207443  0.09395820  0.08415114     0.09000
H1145       H  0.21899421  0.08848349  0.04510852     0.08000
N1146       N  0.23198319  0.04755810  0.09386537    -0.35800
N1147       N  0.23456243  0.03671521  0.08884971    -0.28000
C1148       C  0.23453585  0.02808838  0.09786241    -0.03200
C1149       C  0.23208104  0.03384702  0.10904323     0.05400
C1150       C  0.23052332  0.04616181  0.10609810     0.03500
H1151       H  0.23597183  0.01831046  0.09636461     0.08600
H1152       H  0.22779252  0.05348238  0.11229188     0.07400
C1153       C  0.21968565  0.12827399  0.05029441    -0.21000
C1154       C  0.21174097  0.13458943  0.05831268    -0.09000
C1155       C  0.20662229  0.12831973  0.06843418     0.29800
C1156       C  0.20943745  0.11586957  0.07045733    -0.21000
C1157       C  0.21707714  0.10944399  0.06220491    -0.09000
C1158       C  0.22222377  0.11576490  0.05210559     0.29800
F1159       F  0.22986871  0.10992098  0.04409266    -0.19600
H1160       H  0.22368721  0.13296382  0.04243609     0.18200
H1161       H  0.20540127  0.11116104  0.07829224     0.18200
F1162       F  0.19905385  0.13427735  0.07643483    -0.19600
C1163       C  0.13582585  0.21281883  0.03521543    -0.21000
C1164       C  0.14051740  0.20069100  0.03471416    -0.09000
C1165       C  0.13217852  0.19078656  0.03571939     0.29800
C1166       C  0.11977596  0.19293454  0.03830846    -0.21000
C1167       C  0.11522348  0.20495955  0.03970818    -0.09000
C1168       C  0.12323234  0.21496074  0.03768007     0.29800
F1169       F  0.11912017  0.22671872  0.03901156    -0.19600
H1170       H  0.14199680  0.22060399  0.03440757     0.18200
H1171       H  0.11373518  0.18509356  0.03964327     0.18200
F1172       F  0.13601465  0.17892337  0.03447176    -0.19600
C1173       C  0.05051819  0.19617796  0.13791733    -0.21000
C1174       C  0.05512833  0.18573200  0.14409572    -0.09000
C1175       C  0.06079382  0.17630407  0.13715993     0.29800
C1176       C  0.06173679  0.17736545  0.12430669    -0.21000
C1177       C  0.05680927  0.18766971  0.11818818    -0.09000
C1178       C  0.05127635  0.19712609  0.12510504     0.29800
F1179       F  0.04683687  0.20743603  0.11950536    -0.19600
H1180       H  0.04608514  0.20356163  0.14296181     0.18200
H1181       H  0.06611298  0.17004573  0.11910060     0.18200
F1182       F  0.06559560  0.16617477  0.14277245    -0.19600
C1183       C  0.23047809  0.02968116  0.14374549    -0.21000
C1184       C  0.22259719  0.01950445  0.14479215    -0.09000
C1185       C  0.21879958  0.01333553  0.13404098     0.29800
C1186       C  0.22258342  0.01754450  0.12239490    -0.21000
C1187       C  0.22985226  0.02820451  0.12131216    -0.09000
C1188       C  0.23395379  0.03411487  0.13212123     0.29800
F1189       F  0.24110511  0.04435311  0.13144036    -0.19600
H1190       H  0.23339873  0.03460836  0.15193018     0.18200
H1191       H  0.21926498  0.01289030  0.11420874     0.18200
F1192       F  0.21116430  0.00346021  0.13480485    -0.19600
C1193       C  0.03156064  0.12198809  0.22686709    -0.21000
C1194       C  0.03977282  0.13186766  0.22833827    -0.09000
C1195       C  0.05110325  0.12978603  0.23423750     0.29800
C1196       C  0.05442027  0.11787064  0.23800091    -0.21000
C1197       C  0.04650352  0.10780446  0.23598199    -0.09000
C1198       C  0.03481668  0.11004799  0.23075402     0.29800
F1199       F  0.02698295  0.10059603  0.22841077    -0.19600
H1200       H  0.02288165  0.12340836  0.22210453     0.18200
H1201       H  0.06345183  0.11641609  0.24204271     0.18200
F1202       F  0.05930172  0.13913077  0.23560102    -0.19600
C1203       C  0.12994377  0.05277110  0.21602042    -0.21000
C1204       C  0.12064332  0.04606132  0.20999753    -0.09000
C1205       C  0.12406850  0.03711997  0.20122992     0.29800
C1206       C  0.13653540  0.03475508  0.19883900    -0.21000
C1207       C  0.14582344  0.04111142  0.20524533    -0.09000
C1208       C  0.14240069  0.05028640  0.21375590     0.29800
F1209       F  0.15107376  0.05693871  0.21982902    -0.19600
H1210       H  0.12759788  0.05972768  0.22278946     0.18200
H1211       H  0.13891617  0.02767687  0.19220911     0.18200
F1212       F  0.11539937  0.03070956  0.19489732    -0.19600
C1213       C  0.06974732  0.79972440  0.39089190    -0.21000
C1214       C  0.06275468  0.79085214  0.39719709    -0.09000
C1215       C  0.05441871  0.78348518  0.39056461     0.29800
C1216       C  0.05305736  0.78506506  0.37782904    -0.21000
C1217       C  0.05972199  0.79423650  0.37159110    -0.09000
C1218       C  0.06811705  0.80155184  0.37820196     0.29800
F1219       F  0.07488042  0.81030476  0.37235174    -0.19600
H1220       H  0.07625135  0.80542846  0.39585580     0.18200
H1221       H  0.04658091  0.77932766  0.37288659     0.18200
F1222       F  0.04775581  0.77461453  0.39635875    -0.19600
C1223       C  0.13110201  0.77529039  0.47337379    -0.21000
C1224       C  0.12063735  0.78012100  0.47932227    -0.09000
C1225       C  0.12229316  0.78796914  0.48951511     0.29800
C1226       C  0.13420919  0.79151035  0.49312410    -0.21000
C1227       C  0.14464233  0.78694844  0.48692315    -0.09000
C1228       C  0.14300048  0.77851809  0.47723136     0.29800
F1229       F  0.15287061  0.77413165  0.47089988    -0.19600
H1230       H  0.13003878  0.76928897  0.46545894     0.18200
H1231       H  0.13529487  0.79813851  0.50051881     0.18200
F1232       F  0.11241089  0.79296040  0.49536054    -0.19600
C1233       C  0.04736148  0.99427615  0.27561139    -0.21000
C1234       C  0.04641793  0.98287215  0.26949391    -0.09000
C1235       C  0.04449782  0.98283332  0.25665285     0.29800
C1236       C  0.04448412  0.99394662  0.25002321    -0.21000
C1237       C  0.04603929  0.00530149  0.25606781    -0.09000
C1238       C  0.04703859  0.00540817  0.26900488     0.29800
F1239       F  0.04877217  0.01616400  0.27516152    -0.19600
H1240       H  0.04888630  0.99453663  0.28548058     0.18200
H1241       H  0.04373860  0.99365953  0.24005001     0.18200
F1242       F  0.04370355  0.97205321  0.25035168    -0.19600
C1243       C  0.05373212  0.86984673  0.27818283    -0.21000
C1244       C  0.04965930  0.88003924  0.28507684    -0.09000
C1245       C  0.04239995  0.87802372  0.29560967     0.29800
C1246       C  0.03978062  0.86598109  0.29947965    -0.21000
C1247       C  0.04406626  0.85575482  0.29275692    -0.09000
C1248       C  0.05079596  0.85778789  0.28185204     0.29800
F1249       F  0.05527145  0.84814066  0.27524014    -0.19600
H1250       H  0.05947712  0.87123711  0.27012256     0.18200
H1251       H  0.03462973  0.86461888  0.30794907     0.18200
F1252       F  0.03859397  0.88766365  0.30263884    -0.19600
C1253       C  0.21730358  0.87781534  0.45022851    -0.21000
C1254       C  0.21144580  0.88735664  0.45678073    -0.09000
C1255       C  0.20231555  0.88426956  0.46548355     0.29800
C1256       C  0.19945207  0.87191703  0.46781910    -0.21000
C1257       C  0.20567694  0.86237912  0.46165223    -0.09000
C1258       C  0.21450876  0.86544569  0.45265777     0.29800
F1259       F  0.22039725  0.85651219  0.44614897    -0.19600
H1260       H  0.22430606  0.87989324  0.44343267     0.18200
H1261       H  0.19258419  0.86981833  0.47476777     0.18200
F1262       F  0.19605353  0.89314850  0.47170278    -0.19600
C1263       C  0.22569355  0.97914088  0.25732947    -0.21000
C1264       C  0.22604923  0.98537068  0.26871358    -0.09000
C1265       C  0.22617667  0.99835882  0.26869438     0.29800
C1266       C  0.22498348  0.00487759  0.25758336    -0.21000
C1267       C  0.22396845  0.99863241  0.24627941    -0.09000
C1268       C  0.22478328  0.98568206  0.24619585     0.29800
F1269       F  0.22367880  0.97929575  0.23548723    -0.19600
H1270       H  0.22561243  0.96916321  0.25708796     0.18200
H1271       H  0.22440479  0.01485986  0.25784329     0.18200
F1272       F  0.22643750  0.00478639  0.27942417    -0.19600
C1273       C  0.14257977  0.95057189  0.31542752    -0.21000
C1274       C  0.15183953  0.94361201  0.30963310    -0.09000
C1275       C  0.14840244  0.93449673  0.30107022     0.29800
C1276       C  0.13595890  0.93264862  0.29819792    -0.21000
C1277       C  0.12671096  0.93988812  0.30372008    -0.09000
C1278       C  0.13017000  0.94879041  0.31251608     0.29800
F1279       F  0.12160577  0.95569900  0.31847997    -0.19600
H1280       H  0.14494274  0.95766340  0.32205862     0.18200
H1281       H  0.13360075  0.92568869  0.29144143     0.18200
F1282       F  0.15702462  0.92726488  0.29557555    -0.19600
C1283       C  0.21933622  0.97537322  0.38191525    -0.21000
C1284       C  0.22569206  0.97038973  0.37177314    -0.09000
C1285       C  0.23578803  0.96251776  0.37392687     0.29800
C1286       C  0.23900958  0.95920153  0.38601497    -0.21000
C1287       C  0.23248791  0.96397455  0.39614035    -0.09000
C1288       C  0.22280203  0.97234800  0.39401610     0.29800
F1289       F  0.21612187  0.97687756  0.40358777    -0.19600
H1290       H  0.21144417  0.98133546  0.38043748     0.18200
H1291       H  0.24640147  0.95261295  0.38747921     0.18200
F1292       F  0.24193309  0.95730007  0.36434792    -0.19600
C1293       C  0.99667758  0.75475865  0.47514132    -0.21000
C1294       C  0.99789134  0.74187864  0.47570742    -0.09000
C1295       C  0.00965404  0.73673268  0.47774600     0.29800
C1296       C  0.02009632  0.74430473  0.47830516    -0.21000
C1297       C  0.01901102  0.75709353  0.47653869    -0.09000
C1298       C  0.00714982  0.76231287  0.47540790     0.29800
F1299       F  0.00573811  0.77467782  0.47393448    -0.19600
H1300       H  0.98773417  0.75891760  0.47353839     0.18200
H1301       H  0.02910149  0.74006958  0.47916860     0.18200
F1302       F  0.01111584  0.72431326  0.47855737    -0.19600
C1303       C  0.88893423  0.71177976  0.45661057    -0.21000
C1304       C  0.89744580  0.71454681  0.46599959    -0.09000
C1305       C  0.89300342  0.71561512  0.47821541     0.29800
C1306       C  0.88055254  0.71300795  0.48093273    -0.21000
C1307       C  0.87241761  0.70928959  0.47154691    -0.09000
C1308       C  0.87666743  0.70909879  0.45931949     0.29800
F1309       F  0.86899218  0.70590636  0.44995523    -0.19600
H1310       H  0.89181887  0.71131544  0.44705201     0.18200
H1311       H  0.87746166  0.71319163  0.49043107     0.18200
F1312       F  0.90075583  0.71841096  0.48762353    -0.19600
C1313       C  0.00399097  0.74312239  0.29103451    -0.21000
C1314       C  0.01001727  0.73162886  0.29138411    -0.09000
C1315       C  0.02295981  0.73129531  0.29094028     0.29800
C1316       C  0.02970154  0.74230508  0.29112362    -0.21000
C1317       C  0.02367379  0.75380173  0.29144666    -0.09000
C1318       C  0.01073057  0.75413377  0.29090962     0.29800
F1319       F  0.00457761  0.76503892  0.29146792    -0.19600
H1320       H  0.99401773  0.74356733  0.29148492     0.18200
H1321       H  0.03966662  0.74185275  0.29163506     0.18200
F1322       F  0.02909860  0.72038131  0.29153201    -0.19600
C1323       C  0.99293535  0.61955398  0.29640943    -0.21000
C1324       C  0.98838900  0.63003977  0.29023847    -0.09000
C1325       C  0.98142311  0.62844283  0.27941411     0.29800
C1326       C  0.97846820  0.61654225  0.27530854    -0.21000
C1327       C  0.98275844  0.60605938  0.28166249    -0.09000
C1328       C  0.99032240  0.60766042  0.29206842     0.29800
F1329       F  0.99442615  0.59774586  0.29855865    -0.19600
H1330       H  0.99827489  0.62058673  0.30479025     0.18200
H1331       H  0.97252917  0.61549435  0.26734719     0.18200
F1332       F  0.97672896  0.63834861  0.27332157    -0.19600
C1333       C  0.96446765  0.68211180  0.37730138    -0.21000
C1334       C  0.97282780  0.68979878  0.37107361    -0.09000
C1335       C  0.97866684  0.69932389  0.37765812     0.29800
C1336       C  0.97606018  0.70117823  0.39015613    -0.21000
C1337       C  0.96740915  0.69376713  0.39629679    -0.09000
C1338       C  0.96164654  0.68415768  0.38976883     0.29800
F1339       F  0.95346898  0.67661509  0.39548648    -0.19600
H1340       H  0.95991313  0.67469179  0.37243555     0.18200
H1341       H  0.98063449  0.70862021  0.39498009     0.18200
F1342       F  0.98709014  0.70671202  0.37209499    -0.19600
C1343       C  0.79911291  0.61396648  0.45854538    -0.21000
C1344       C  0.80574468  0.60761945  0.44943045    -0.09000
C1345       C  0.81425252  0.61408672  0.44209984     0.29800
C1346       C  0.81628080  0.62667683  0.44412477    -0.21000
C1347       C  0.80955635  0.63303449  0.45317988    -0.09000
C1348       C  0.80085591  0.62659930  0.46031272     0.29800
F1349       F  0.79436301  0.63240813  0.46930654    -0.19600
H1350       H  0.79250473  0.60913863  0.46425851     0.18200
H1351       H  0.82302336  0.63149376  0.43856574     0.18200
F1352       F  0.82089981  0.60815735  0.43330052    -0.19600
C1353       C  0.88760377  0.53863265  0.30848693    -0.21000
C1354       C  0.87855783  0.54625607  0.30319023    -0.09000
C1355       C  0.88220818  0.55550025  0.29483813     0.29800
C1356       C  0.89464605  0.55678999  0.29163158    -0.21000
C1357       C  0.90365208  0.54885233  0.29660903    -0.09000
C1358       C  0.89999085  0.53986117  0.30525242     0.29800
F1359       F  0.90834368  0.53231773  0.31075980    -0.19600
H1360       H  0.88506749  0.53143568  0.31495745     0.18200
H1361       H  0.89717920  0.56386525  0.28503255     0.18200
F1362       F  0.87380122  0.56336637  0.28987035    -0.19600
C1363       C  0.79544281  0.52967685  0.36809745    -0.21000
C1364       C  0.80479412  0.52098321  0.36597972    -0.09000
C1365       C  0.81036101  0.51507328  0.37614363     0.29800
C1366       C  0.80671329  0.51798226  0.38823052    -0.21000
C1367       C  0.79780786  0.52715949  0.39033851    -0.09000
C1368       C  0.79212738  0.53291219  0.38015378     0.29800
F1369       F  0.78359779  0.54193187  0.38188588    -0.19600
H1370       H  0.79118941  0.53447344  0.36041255     0.18200
H1371       H  0.81133370  0.51359771  0.39593451     0.18200
F1372       F  0.81952547  0.50671069  0.37437477    -0.19600
C1373       C  0.76005398  0.70723745  0.51707826    -0.21000
C1374       C  0.74862061  0.70737834  0.51096163    -0.09000
C1375       C  0.74840395  0.70893621  0.49808976     0.29800
C1376       C  0.75947755  0.70939909  0.49143510    -0.21000
C1377       C  0.77093366  0.70860499  0.49750282    -0.09000
C1378       C  0.77112286  0.70800356  0.51045913     0.29800
F1379       F  0.78195609  0.70700032  0.51665113    -0.19600
H1380       H  0.76041367  0.70595883  0.52699836     0.18200
H1381       H  0.75910938  0.70979093  0.48145782     0.18200
F1382       F  0.73755475  0.70886908  0.49184180    -0.19600
C1383       C  0.77204076  0.52711207  0.51472766    -0.21000
C1384       C  0.75917206  0.52832388  0.51403595    -0.09000
C1385       C  0.75346410  0.52798146  0.50234014     0.29800
C1386       C  0.76055433  0.52719671  0.49157012    -0.21000
C1387       C  0.77345286  0.52704062  0.49224166    -0.09000
C1388       C  0.77914893  0.52666070  0.50391885     0.29800
F1389       F  0.79162843  0.52650001  0.50484217    -0.19600
H1390       H  0.77664606  0.52739890  0.52358596     0.18200
H1391       H  0.75599579  0.52765900  0.48269085     0.18200
F1392       F  0.74102883  0.52893454  0.50128269    -0.19600
C1393       C  0.71622425  0.60859176  0.54383675    -0.21000
C1394       C  0.70885894  0.60217527  0.55234429    -0.09000
C1395       C  0.70003494  0.60877054  0.55922719     0.29800
C1396       C  0.69855012  0.62150990  0.55742800    -0.21000
C1397       C  0.70603968  0.62788135  0.54899575    -0.09000
C1398       C  0.71491252  0.62129419  0.54222148     0.29800
F1399       F  0.72207966  0.62704429  0.53372281    -0.19600
H1400       H  0.72315885  0.60380731  0.53848548     0.18200
H1401       H  0.69165600  0.62642800  0.56271538     0.18200
F1402       F  0.69265794  0.60289654  0.56745052    -0.19600
C1403       C  0.71090025  0.51836949  0.62940707    -0.21000
C1404       C  0.72048457  0.51801310  0.63815277    -0.09000
C1405       C  0.73272717  0.51930140  0.63392041     0.29800
C1406       C  0.73510181  0.52185718  0.62138783    -0.21000
C1407       C  0.72533835  0.52322434  0.61296039    -0.09000
C1408       C  0.71325656  0.52101521  0.61702345     0.29800
F1409       F  0.70362361  0.52185247  0.60905465    -0.19600
H1410       H  0.70142518  0.51701972  0.63220788     0.18200
H1411       H  0.74448199  0.52357336  0.61844475     0.18200
F1412       F  0.74232233  0.51899282  0.64194531    -0.19600
C1413       C  0.54456356  0.61902362  0.72367239    -0.21000
C1414       C  0.55307437  0.61702124  0.73322342    -0.09000
C1415       C  0.55793055  0.62722800  0.73956702     0.29800
C1416       C  0.55464221  0.63927104  0.73608894    -0.21000
C1417       C  0.54678305  0.64127992  0.72598632    -0.09000
C1418       C  0.54158770  0.63104992  0.71993817     0.29800
F1419       F  0.53394036  0.63270415  0.71014874    -0.19600
H1420       H  0.54079547  0.61128965  0.71863321     0.18200
H1421       H  0.55882128  0.64701950  0.74078663     0.18200
F1422       F  0.56612251  0.62553140  0.74889279    -0.19600
C1423       C  0.63785638  0.55690265  0.72008493    -0.21000
C1424       C  0.62797981  0.55239701  0.71303307    -0.09000
C1425       C  0.63052025  0.54468982  0.70291397     0.29800
C1426       C  0.64266339  0.54143155  0.70005768    -0.21000
C1427       C  0.65256445  0.54565928  0.70726538    -0.09000
C1428       C  0.65002872  0.55350587  0.71732589     0.29800
F1429       F  0.65927003  0.55807401  0.72440218    -0.19600
H1430       H  0.63613288  0.56284912  0.72791978     0.18200
H1431       H  0.64426641  0.53538098  0.69227727     0.18200
F1432       F  0.62128462  0.54046051  0.69561305    -0.19600
C1433       C  0.62488731  0.70740914  0.53187688    -0.21000
C1434       C  0.62321453  0.71670300  0.54072402    -0.09000
C1435       C  0.63365649  0.72243186  0.54586899     0.29800
C1436       C  0.64554678  0.71863429  0.54247624    -0.21000
C1437       C  0.64719286  0.70879490  0.53423491    -0.09000
C1438       C  0.63676371  0.70332770  0.52880671     0.29800
F1439       F  0.63806771  0.69380416  0.52078573    -0.19600
H1440       H  0.61698046  0.70280308  0.52789216     0.18200
H1441       H  0.65344973  0.72288507  0.54683193     0.18200
F1442       F  0.63234609  0.73147679  0.55442569    -0.19600
C1443       C  0.55481979  0.71180778  0.62749323    -0.21000
C1444       C  0.56400356  0.70569013  0.62072082    -0.09000
C1445       C  0.57187417  0.69731840  0.62679935     0.29800
C1446       C  0.57053213  0.69514162  0.63946286    -0.21000
C1447       C  0.56159916  0.70155798  0.64627056    -0.09000
C1448       C  0.55372165  0.70990364  0.64020231     0.29800
F1449       F  0.54480999  0.71602732  0.64652460    -0.19600
H1450       H  0.54866119  0.71826975  0.62298064     0.18200
H1451       H  0.57662409  0.68863890  0.64401258     0.18200
F1452       F  0.58067716  0.69106383  0.62046081    -0.19600
C1453       C  0.73023237  0.47861883  0.75115693    -0.21000
C1454       C  0.73016464  0.48451708  0.76272312    -0.09000
C1455       C  0.73097650  0.49745408  0.76311753     0.29800
C1456       C  0.73083733  0.50430852  0.75214955    -0.21000
C1457       C  0.73003321  0.49843617  0.74060515    -0.09000
C1458       C  0.73022310  0.48547118  0.74018739     0.29800
F1459       F  0.72923796  0.47940336  0.72928626    -0.19600
H1460       H  0.72962407  0.46866605  0.75061351     0.18200
H1461       H  0.73072306  0.51429219  0.75270108     0.18200
F1462       F  0.73074433  0.50355166  0.77404248    -0.19600
C1463       C  0.54939909  0.50361730  0.76981319    -0.21000
C1464       C  0.54779858  0.49240231  0.76352931    -0.09000
C1465       C  0.54556736  0.49263340  0.75075167     0.29800
C1466       C  0.54591657  0.50385108  0.74428617    -0.21000
C1467       C  0.54810771  0.51500703  0.75050953    -0.09000
C1468       C  0.54938824  0.51484945  0.76341574     0.29800
F1469       F  0.55177146  0.52540342  0.76970262    -0.19600
H1470       H  0.55124690  0.50361654  0.77964270     0.18200
H1471       H  0.54500616  0.50378384  0.73433662     0.18200
F1472       F  0.54417652  0.48196279  0.74436462    -0.19600
C1473       C  0.63277766  0.44948089  0.78674049    -0.21000
C1474       C  0.62574347  0.44073959  0.79320553    -0.09000
C1475       C  0.63170828  0.43263937  0.80143955     0.29800
C1476       C  0.64441445  0.43363902  0.80347857    -0.21000
C1477       C  0.65140138  0.44244557  0.79707342    -0.09000
C1478       C  0.64550824  0.45025762  0.78853335     0.29800
F1479       F  0.65193127  0.45906014  0.78237486    -0.19600
H1480       H  0.62839654  0.45577490  0.78032334     0.18200
H1481       H  0.64881000  0.42756496  0.81010468     0.18200
F1482       F  0.62520279  0.42415657  0.80794051    -0.19600
C1483       C  0.54169377  0.31314703  0.87770877    -0.21000
C1484       C  0.54915760  0.30863546  0.86814289    -0.09000
C1485       C  0.55959222  0.30150868  0.87112243     0.29800
C1486       C  0.56221854  0.29861273  0.88343144    -0.21000
C1487       C  0.55443568  0.30265130  0.89299110    -0.09000
C1488       C  0.54422864  0.31014114  0.89000773     0.29800
F1489       F  0.53669560  0.31462236  0.89893883    -0.19600
H1490       H  0.53362544  0.31868359  0.87564301     0.18200
H1491       H  0.57016525  0.29289192  0.88541939     0.18200
F1492       F  0.56728682  0.29737509  0.86215158    -0.19600
C1493       C  0.53654386  0.36905252  0.78325724    -0.21000
C1494       C  0.52759654  0.36813986  0.79256470    -0.09000
C1495       C  0.52328448  0.37901200  0.79823609     0.29800
C1496       C  0.52817100  0.39052010  0.79492775    -0.21000
C1497       C  0.53769322  0.39131290  0.78621166    -0.09000
C1498       C  0.54170608  0.38050680  0.78024384     0.29800
F1499       F  0.55087391  0.38099789  0.77173892    -0.19600
H1500       H  0.54008028  0.36081809  0.77885311     0.18200
H1501       H  0.52502879  0.39872145  0.79968538     0.18200
F1502       F  0.51460137  0.37845965  0.80723398    -0.19600
C1503       C  0.73527780  0.46442308  0.88267622    -0.21000
C1504       C  0.72575679  0.46109387  0.89081793    -0.09000
C1505       C  0.71358468  0.46093867  0.88638969     0.29800
C1506       C  0.71108484  0.46321311  0.87398074    -0.21000
C1507       C  0.72062872  0.46546515  0.86549368    -0.09000
C1508       C  0.73277191  0.46656204  0.87007542     0.29800
F1509       F  0.74230693  0.46896300  0.86235942    -0.19600
H1510       H  0.74471963  0.46465277  0.88590540     0.18200
H1511       H  0.70158941  0.46282266  0.87100169     0.18200
F1512       F  0.70403378  0.45827492  0.89403093    -0.19600
C1513       C  0.63987146  0.27997019  0.96166313    -0.21000
C1514       C  0.64189292  0.28254125  0.97415161    -0.09000
C1515       C  0.63229143  0.28062910  0.98264205     0.29800
C1516       C  0.62055151  0.27703282  0.97846795    -0.21000
C1517       C  0.61830112  0.27531275  0.96578589    -0.09000
C1518       C  0.62828483  0.27625282  0.95750969     0.29800
F1519       F  0.62681861  0.27389939  0.94529973    -0.19600
H1520       H  0.64721321  0.28129206  0.95501507     0.18200
H1521       H  0.61308753  0.27631782  0.98504491     0.18200
F1522       F  0.63402484  0.28307382  0.99479846    -0.19600
C1523       C  0.69575371  0.36946903  0.95245910    -0.21000
C1524       C  0.70265720  0.36283226  0.96120156    -0.09000
C1525       C  0.71181073  0.36900639  0.96800891     0.29800
C1526       C  0.71401872  0.38154944  0.96602750    -0.21000
C1527       C  0.70733967  0.38812853  0.95707065    -0.09000
C1528       C  0.69816242  0.38197687  0.95027679     0.29800
F1529       F  0.69137538  0.38809092  0.94169011    -0.19600
H1530       H  0.68864950  0.36489770  0.94714199     0.18200
H1531       H  0.72115124  0.38605541  0.97134033     0.18200
F1532       F  0.71845925  0.36301141  0.97678881    -0.19600
C1533       C  0.98242970  0.48115050  0.26058631    -0.21000
C1534       C  0.98475428  0.48206605  0.24788142    -0.09000
C1535       C  0.98772021  0.49368608  0.24286528     0.29800
C1536       C  0.98744655  0.50428528  0.25024210    -0.21000
C1537       C  0.98397807  0.50353520  0.26269432    -0.09000
C1538       C  0.98193327  0.49179426  0.26792806     0.29800
F1539       F  0.97892360  0.49065844  0.28003242    -0.19600
H1540       H  0.98011734  0.47232997  0.26465448     0.18200
H1541       H  0.98908352  0.51317164  0.24598253     0.18200
F1542       F  0.99028714  0.49487712  0.23066172    -0.19600
C1543       C  0.99511226  0.24372411  0.22136451    -0.21000
C1544       C  0.00052699  0.25496820  0.21786256    -0.09000
C1545       C  0.01306913  0.25510241  0.21466628     0.29800
C1546       C  0.01985478  0.24409690  0.21443424    -0.21000
C1547       C  0.01434862  0.23273052  0.21746556    -0.09000
C1548       C  0.00195163  0.23271941  0.22132117     0.29800
F1549       F  0.99617512  0.22203070  0.22427738    -0.19600
H1550       H  0.98543028  0.24341581  0.22380790     0.18200
H1551       H  0.02939210  0.24443907  0.21150444     0.18200
F1552       F  0.01854627  0.26569392  0.21086601    -0.19600
C1553       C  0.98000378  0.36602218  0.20128539    -0.21000
C1554       C  0.98074650  0.35754588  0.21108475    -0.09000
C1555       C  0.98045860  0.36207211  0.22327516     0.29800
C1556       C  0.97867852  0.37476338  0.22548201    -0.21000
C1557       C  0.97705964  0.38301623  0.21558190    -0.09000
C1558       C  0.97811025  0.37855259  0.20346806     0.29800
F1559       F  0.97702028  0.38630206  0.19366690    -0.19600
H1560       H  0.98050073  0.36289381  0.19181376     0.18200
H1561       H  0.97784512  0.37802361  0.23488747     0.18200
F1562       F  0.98100284  0.35420419  0.23301075    -0.19600
C1563       C  0.00219955  0.25204518  0.04576774    -0.21000
C1564       C  0.99109483  0.24546256  0.04446789    -0.09000
C1565       C  0.99167816  0.23273748  0.04198432     0.29800
C1566       C  0.00308584  0.22663727  0.04179857    -0.21000
C1567       C  0.01413001  0.23311367  0.04373402    -0.09000
C1568       C  0.01363308  0.24597153  0.04526805     0.29800
F1569       F  0.02408988  0.25248452  0.04739502    -0.19600
H1570       H  0.00199381  0.26184337  0.04769747     0.18200
H1571       H  0.00326919  0.21669613  0.04073006     0.18200
F1572       F  0.98122562  0.22598164  0.04084309    -0.19600
C1573       C  0.94035852  0.27795250  0.14458755    -0.21000
C1574       C  0.94766986  0.28836914  0.14698064    -0.09000
C1575       C  0.95284495  0.29484120  0.13696979     0.29800
C1576       C  0.95099290  0.29074021  0.12492178    -0.21000
C1577       C  0.94390177  0.28020672  0.12254161    -0.09000
C1578       C  0.93840605  0.27392454  0.13247541     0.29800
F1579       F  0.93168873  0.26355284  0.13056892    -0.19600
H1580       H  0.93629276  0.27281283  0.15212132     0.18200
H1581       H  0.95526349  0.29576638  0.11741559     0.18200
F1582       F  0.96027573  0.30472815  0.13875500    -0.19600
C1583       C  0.75241750  0.28299225  0.02310683    -0.21000
C1584       C  0.76383290  0.28415575  0.01707605    -0.09000
C1585       C  0.76400710  0.28538366  0.00417130     0.29800
C1586       C  0.75294395  0.28613018  0.99756130    -0.21000
C1587       C  0.74149682  0.28550195  0.00362451    -0.09000
C1588       C  0.74132787  0.28349581  0.01645182     0.29800
F1589       F  0.73050027  0.28298295  0.02269185    -0.19600
H1590       H  0.75209019  0.28211561  0.03306408     0.18200
H1591       H  0.75332491  0.28768794  0.98769224     0.18200
F1592       F  0.77481036  0.28689873  0.99804832    -0.19600
C1593       C  0.87641344  0.28200489  0.03374214    -0.21000
C1594       C  0.86541009  0.27622977  0.03739524    -0.09000
C1595       C  0.86608104  0.26489726  0.04370370     0.29800
C1596       C  0.87756751  0.25983759  0.04687487    -0.21000
C1597       C  0.88856112  0.26574686  0.04344905    -0.09000
C1598       C  0.88789816  0.27673002  0.03656163     0.29800
F1599       F  0.89833571  0.28280878  0.03332807    -0.19600
H1600       H  0.87610297  0.29077298  0.02893952     0.18200
H1601       H  0.87789387  0.25144419  0.05231391     0.18200
F1602       F  0.85566277  0.25916880  0.04757468    -0.19600
C1603       C  0.80507186  0.48762183  0.25054990    -0.21000
C1604       C  0.80486138  0.49435540  0.23945274    -0.09000
C1605       C  0.80331683  0.50722199  0.23995132     0.29800
C1606       C  0.80281544  0.51325535  0.25138581    -0.21000
C1607       C  0.80356686  0.50657046  0.26251133    -0.09000
C1608       C  0.80426835  0.49361761  0.26197946     0.29800
F1609       F  0.80523858  0.48681338  0.27245885    -0.19600
H1610       H  0.80636383  0.47770710  0.25036414     0.18200
H1611       H  0.80233484  0.52323653  0.25155762     0.18200
F1612       F  0.80335794  0.51405857  0.22944622    -0.19600
C1613       C  0.89134493  0.46703830  0.20231392    -0.21000
C1614       C  0.88441286  0.46098606  0.19321724    -0.09000
C1615       C  0.89023840  0.45229684  0.18555774     0.29800
C1616       C  0.90272239  0.44949472  0.18723122    -0.21000
C1617       C  0.90966454  0.45552708  0.19633285    -0.09000
C1618       C  0.90389733  0.46446340  0.20378902     0.29800
F1619       F  0.91020540  0.47030317  0.21288038    -0.19600
H1620       H  0.88702859  0.47376204  0.20829107     0.18200
H1621       H  0.90698041  0.44256247  0.18142143     0.18200
F1622       F  0.88374997  0.44611491  0.17683184    -0.19600
C1623       C  0.76396936  0.46394188  0.01179959    -0.21000
C1624       C  0.77648919  0.46079448  0.01083442    -0.09000
C1625       C  0.78147327  0.45853730  0.99903606     0.29800
C1626       C  0.77392259  0.45892884  0.98851230    -0.21000
C1627       C  0.76123082  0.46122129  0.98962187    -0.09000
C1628       C  0.75636625  0.46397853  0.00134622     0.29800
F1629       F  0.74414050  0.46627422  0.00275596    -0.19600
H1630       H  0.75988544  0.46562633  0.02075900     0.18200
H1631       H  0.77784158  0.45666788  0.97961317     0.18200
F1632       F  0.79356975  0.45559165  0.99772137    -0.19600
C1633       C  0.79841438  0.37537219  0.06728015    -0.21000
C1634       C  0.80620986  0.38334996  0.06069971    -0.09000
C1635       C  0.81550747  0.37830282  0.05321567     0.29800
C1636       C  0.81683893  0.36553989  0.05219765    -0.21000
C1637       C  0.80885483  0.35750934  0.05846737    -0.09000
C1638       C  0.79961288  0.36254670  0.06608850     0.29800
F1639       F  0.79183202  0.35512279  0.07247990    -0.19600
H1640       H  0.79118379  0.37907244  0.07309780     0.18200
H1641       H  0.82400238  0.36195050  0.04621093     0.18200
F1642       F  0.82344518  0.38570273  0.04699201    -0.19600
C1643       C  0.80307939  0.47765173  0.11451871    -0.21000
C1644       C  0.79431956  0.46825367  0.11306005    -0.09000
C1645       C  0.78864977  0.46326759  0.12363993     0.29800
C1646       C  0.79226247  0.46706638  0.13545447    -0.21000
C1647       C  0.80178614  0.47566432  0.13690924    -0.09000
C1648       C  0.80692464  0.48121181  0.12635077     0.29800
F1649       F  0.81603105  0.48970274  0.12749406    -0.19600
H1650       H  0.80757071  0.48160835  0.10652580     0.18200
H1651       H  0.78822717  0.46266254  0.14345399     0.18200
F1652       F  0.77997017  0.45433212  0.12255560    -0.19600
C1653       C  0.50456015  0.75394461  0.71744887    -0.21000
C1654       C  0.51053028  0.76545767  0.71779890    -0.09000
C1655       C  0.52309380  0.76584043  0.72094652     0.29800
C1656       C  0.52972871  0.75484193  0.72262225    -0.21000
C1657       C  0.52391121  0.74331066  0.72154398    -0.09000
C1658       C  0.51113414  0.74296088  0.71944701     0.29800
F1659       F  0.50523711  0.73200902  0.71812571    -0.19600
H1660       H  0.49489439  0.75342874  0.71501252     0.18200
H1661       H  0.53959907  0.75530201  0.72411344     0.18200
F1662       F  0.52922480  0.77673631  0.72122171    -0.19600
C1663       C  0.26978086  0.78480455  0.50518122    -0.21000
C1664       C  0.26981237  0.78456166  0.51812930    -0.09000
C1665       C  0.25846206  0.78391655  0.52440004     0.29800
C1666       C  0.24731505  0.78435251  0.51785041    -0.21000
C1667       C  0.24727959  0.78570449  0.50496021    -0.09000
C1668       C  0.25863846  0.78549497  0.49864168     0.29800
F1669       F  0.25899462  0.78638746  0.48615187    -0.19600
H1670       H  0.27838069  0.78530478  0.50015033     0.18200
H1671       H  0.23872544  0.78443942  0.52293862     0.18200
F1672       F  0.25815490  0.78336483  0.53691231    -0.19600
C1673       C  0.50969168  0.75388719  0.53174735    -0.21000
C1674       C  0.49834588  0.74790052  0.53362374    -0.09000
C1675       C  0.49832821  0.73507850  0.53559203     0.29800
C1676       C  0.50951001  0.72867977  0.53694186    -0.21000
C1677       C  0.52085725  0.73486718  0.53599390    -0.09000
C1678       C  0.52085744  0.74742992  0.53277345     0.29800
F1679       F  0.53160543  0.75376018  0.53192712    -0.19600
H1680       H  0.50992488  0.76377056  0.53026834     0.18200
H1681       H  0.50931213  0.71899547  0.53943706     0.18200
F1682       F  0.48758974  0.72897498  0.53750760    -0.19600
C1683       C  0.47425982  0.79044414  0.61519950    -0.21000
C1684       C  0.46474910  0.79699307  0.60931224    -0.09000
C1685       C  0.45817049  0.80595655  0.61601804     0.29800
C1686       C  0.46119744  0.80834836  0.62837074    -0.21000
C1687       C  0.47058901  0.80161889  0.63429729    -0.09000
C1688       C  0.47709142  0.79261908  0.62757548     0.29800
F1689       F  0.48643973  0.78613698  0.63283828    -0.19600
H1690       H  0.47942075  0.78345798  0.61025370     0.18200
H1691       H  0.45608685  0.81532745  0.63336075     0.18200
F1692       F  0.44903702  0.81259446  0.61056776    -0.19600
C1693       C  0.38851402  0.76961210  0.53521582    -0.21000
C1694       C  0.39797513  0.77832609  0.53664355    -0.09000
C1695       C  0.39514901  0.79088668  0.53520935     0.29800
C1696       C  0.38303234  0.79472124  0.53312655    -0.21000
C1697       C  0.37329004  0.78618293  0.53262074    -0.09000
C1698       C  0.37624352  0.77347286  0.53321648     0.29800
F1699       F  0.36728469  0.76478760  0.53266256    -0.19600
H1700       H  0.39049091  0.75989221  0.53639062     0.18200
H1701       H  0.38128143  0.80452426  0.53230562     0.18200
F1702       F  0.40410101  0.79954709  0.53635385    -0.19600
C1703       C  0.25125438  0.96440364  0.52134460    -0.21000
C1704       C  0.26418464  0.96391783  0.52112529    -0.09000
C1705       C  0.27026975  0.96441933  0.50965839     0.29800
C1706       C  0.26350613  0.96474680  0.49862983    -0.21000
C1707       C  0.25057562  0.96426813  0.49883878    -0.09000
C1708       C  0.24449347  0.96442097  0.51031838     0.29800
F1709       F  0.23199552  0.96417303  0.51087460    -0.19600
H1710       H  0.24636270  0.96399649  0.53003855     0.18200
H1711       H  0.26839556  0.96459540  0.48992719     0.18200
F1712       F  0.28276872  0.96420847  0.50910873    -0.19600
C1713       C  0.29784771  0.87741218  0.56919049    -0.21000
C1714       C  0.30459126  0.88694767  0.56362084    -0.09000
C1715       C  0.31444981  0.88385245  0.55575930     0.29800
C1716       C  0.31725360  0.87146282  0.55331832    -0.21000
C1717       C  0.31019922  0.86191183  0.55851441    -0.09000
C1718       C  0.30053792  0.86503694  0.56663494     0.29800
F1719       F  0.29373349  0.85616412  0.57223936    -0.19600
H1720       H  0.29023861  0.87953825  0.57530586     0.18200
H1721       H  0.32476977  0.86936751  0.54709119     0.18200
F1722       F  0.32147966  0.89278529  0.55053252    -0.19600
C1723       C  0.48126872  0.88270817  0.72516933    -0.21000
C1724       C  0.47844460  0.89145963  0.71601444    -0.09000
C1725       C  0.47990519  0.88821465  0.70358293     0.29800
C1726       C  0.48350756  0.87628260  0.70033821    -0.21000
C1727       C  0.48545624  0.86712087  0.70937550    -0.09000
C1728       C  0.48469239  0.87059313  0.72191619     0.29800
F1729       F  0.48647756  0.86219574  0.73103548    -0.19600
H1730       H  0.48010882  0.88503800  0.73481291     0.18200
H1731       H  0.48439710  0.87418135  0.69063636     0.18200
F1732       F  0.47747310  0.89652921  0.69450866    -0.19600
C1733       C  0.29471367  0.97804831  0.63640399    -0.21000
C1734       C  0.28958204  0.97285473  0.64711428    -0.09000
C1735       C  0.28014003  0.96406933  0.64589414     0.29800
C1736       C  0.27657632  0.95994565  0.63414517    -0.21000
C1737       C  0.28202008  0.96485460  0.62344540    -0.09000
C1738       C  0.29083353  0.97426280  0.62466876     0.29800
F1739       F  0.29637274  0.97912833  0.61454990    -0.19600
H1740       H  0.30203383  0.98479337  0.63714588     0.18200
H1741       H  0.26979018  0.95267371  0.63339523     0.18200
F1742       F  0.27502756  0.95880713  0.65604048    -0.19600
C1743       C  0.37620166  0.95807604  0.71639843    -0.21000
C1744       C  0.37053721  0.95571505  0.70497132    -0.09000
C1745       C  0.37755259  0.95015104  0.69553548     0.29800
C1746       C  0.38998665  0.94717473  0.69753552    -0.21000
C1747       C  0.39564379  0.94994046  0.70883315    -0.09000
C1748       C  0.38862769  0.95530375  0.71829593     0.29800
F1749       F  0.39379467  0.95781569  0.72942678    -0.19600
H1750       H  0.37110377  0.96235187  0.72382871     0.18200
H1751       H  0.39529965  0.94306311  0.69014429     0.18200
F1752       F  0.37241904  0.94746435  0.68444474    -0.19600
C1753       C  0.50436096  0.23414500  0.96666215    -0.21000
C1754       C  0.49314570  0.24066000  0.96744701    -0.09000
C1755       C  0.49348775  0.25356446  0.96872061     0.29800
C1756       C  0.50477663  0.25981333  0.96833043    -0.21000
C1757       C  0.51594930  0.25334945  0.96693003    -0.09000
C1758       C  0.51567352  0.24038485  0.96653060     0.29800
F1759       F  0.52621174  0.23379350  0.96497916    -0.19600
H1760       H  0.50433114  0.22420237  0.96563519     0.18200
H1761       H  0.50475862  0.26981236  0.96864462     0.18200
F1762       F  0.48290650  0.26024277  0.96928970    -0.19600
C1763       C  0.24977450  0.03023835  0.99643917    -0.21000
C1764       C  0.26264785  0.02909394  0.99683639    -0.09000
C1765       C  0.26837909  0.02641207  0.00820331     0.29800
C1766       C  0.26147604  0.02606581  0.01911761    -0.21000
C1767       C  0.24879291  0.02860621  0.01889090    -0.09000
C1768       C  0.24289081  0.03009854  0.00738690     0.29800
F1769       F  0.23055833  0.03217374  0.00680279    -0.19600
H1770       H  0.24517000  0.03230029  0.98781147     0.18200
H1771       H  0.26622607  0.02485169  0.02782723     0.18200
F1772       F  0.28079588  0.02495170  0.00885202    -0.19600
C1773       C  0.26415370  0.21747533  0.01067730    -0.21000
C1774       C  0.26372338  0.21547650  0.99789620    -0.09000
C1775       C  0.25216713  0.21415818  0.99212409     0.29800
C1776       C  0.24132626  0.21396541  0.99915134    -0.21000
C1777       C  0.24187597  0.21474702  0.01206018    -0.09000
C1778       C  0.25334764  0.21695803  0.01774072     0.29800
F1779       F  0.25418812  0.21789766  0.03020513    -0.19600
H1780       H  0.27293807  0.21842708  0.01532224     0.18200
H1781       H  0.23262568  0.21218443  0.99458779     0.18200
F1782       F  0.25143275  0.21233967  0.97975456    -0.19600
C1783       C  0.31980215  0.12885177  0.96291979    -0.21000
C1784       C  0.31167317  0.13490439  0.97096620    -0.09000
C1785       C  0.30287564  0.12796538  0.97746634     0.29800
C1786       C  0.30209884  0.11520834  0.97572825    -0.21000
C1787       C  0.30990611  0.10919671  0.96730442    -0.09000
C1788       C  0.31885919  0.11612858  0.96097698     0.29800
F1789       F  0.32676265  0.11061016  0.95298969    -0.19600
H1790       H  0.32668131  0.13404362  0.95787898     0.18200
H1791       H  0.29513757  0.11010009  0.98071263     0.18200
F1792       F  0.29513900  0.13348414  0.98562165    -0.19600
C1793       C  0.37588568  0.21720119  0.98512048    -0.21000
C1794       C  0.36568371  0.21922123  0.97738723    -0.09000
C1795       C  0.36751280  0.22479644  0.96584601     0.29800
C1796       C  0.37944941  0.22762509  0.96183390    -0.21000
C1797       C  0.38977930  0.22510762  0.96931136    -0.09000
C1798       C  0.38783114  0.22028802  0.98123015     0.29800
F1799       F  0.39749170  0.21764364  0.98874659    -0.19600
H1800       H  0.37464073  0.21274729  0.99399103     0.18200
H1801       H  0.38065512  0.23139641  0.95265321     0.18200
F1802       F  0.35785694  0.22662183  0.95807347    -0.19600
C1803       C  0.47306683  0.00230095  0.76739184    -0.21000
C1804       C  0.47377010  0.01343874  0.76073253    -0.09000
C1805       C  0.47583701  0.01296449  0.74793726     0.29800
C1806       C  0.47605328  0.00157128  0.74183548    -0.21000
C1807       C  0.47457545  0.99047955  0.74840484    -0.09000
C1808       C  0.47361484  0.99089564  0.76131648     0.29800
F1809       F  0.47193734  0.98036972  0.76790335    -0.19600
H1810       H  0.47142347  0.00245520  0.77724688     0.18200
H1811       H  0.47662985  0.00143134  0.73186225     0.18200
F1812       F  0.47637068  0.02348808  0.74115652    -0.19600
C1813       C  0.29029942  0.00669204  0.74833610    -0.21000
C1814       C  0.29281321  0.99400644  0.74912615    -0.09000
C1815       C  0.29428198  0.98861786  0.76089321     0.29800
C1816       C  0.29389827  0.99593203  0.77156611    -0.21000
C1817       C  0.29235173  0.00876317  0.77066953    -0.09000
C1818       C  0.29023615  0.01403761  0.75896506     0.29800
F1819       F  0.28861057  0.02640466  0.75775196    -0.19600
H1820       H  0.28919575  0.01107688  0.73942570     0.18200
H1821       H  0.29563360  0.99167839  0.78044938     0.18200
F1822       F  0.29652422  0.97634137  0.76205071    -0.19600
C1823       C  0.30889460  0.03591380  0.88086226    -0.21000
C1824       C  0.29920924  0.03532929  0.87224693    -0.09000
C1825       C  0.28699084  0.03611054  0.87665104     0.29800
C1826       C  0.28467456  0.03794630  0.88932506    -0.21000
C1827       C  0.29447611  0.03917762  0.89773197    -0.09000
C1828       C  0.30660214  0.03788014  0.89337853     0.29800
F1829       F  0.31631390  0.03864843  0.90125080    -0.19600
H1830       H  0.31839241  0.03505321  0.87789027     0.18200
H1831       H  0.27525226  0.03904263  0.89247345     0.18200
F1832       F  0.27734144  0.03586302  0.86868859    -0.19600
C1833       C  0.37364768  0.04870092  0.79198482    -0.21000
C1834       C  0.36859723  0.05521140  0.80198096    -0.09000
C1835       C  0.37612693  0.06335877  0.80868329     0.29800
C1836       C  0.38846840  0.06502847  0.80529867    -0.21000
C1837       C  0.39353866  0.05829723  0.79547689    -0.09000
C1838       C  0.38605333  0.05008458  0.78885545     0.29800
F1839       F  0.39068157  0.04357926  0.77920692    -0.19600
H1840       H  0.36804612  0.04232885  0.78674191     0.18200
H1841       H  0.39414402  0.07137383  0.81049935     0.18200
F1842       F  0.37150745  0.06986421  0.81833098    -0.19600
C1843       C  0.48985514  0.25402646  0.78897497    -0.21000
C1844       C  0.49613883  0.24277288  0.79055182    -0.09000
C1845       C  0.50901910  0.24293507  0.79195953     0.29800
C1846       C  0.51532561  0.25418686  0.79254809    -0.21000
C1847       C  0.50898908  0.26548565  0.79150501    -0.09000
C1848       C  0.49620430  0.26528398  0.78927013     0.29800
F1849       F  0.48967659  0.27593827  0.78830655    -0.19600
H1850       H  0.47991870  0.25410846  0.78791902     0.18200
H1851       H  0.52516963  0.25407871  0.79425320     0.18200
F1852       F  0.51539845  0.23229332  0.79375902    -0.19600
C1853       C  0.44434254  0.20780699  0.86810087    -0.21000
C1854       C  0.45399592  0.19983924  0.86474057    -0.09000
C1855       C  0.46113204  0.19428715  0.87406909     0.29800
C1856       C  0.45872429  0.19681228  0.88647178    -0.21000
C1857       C  0.44911552  0.20482500  0.88988067    -0.09000
C1858       C  0.44182760  0.21022310  0.88054339     0.29800
F1859       F  0.43260781  0.21822001  0.88334527    -0.19600
H1860       H  0.43875310  0.21220243  0.86106658     0.18200
H1861       H  0.46446757  0.19250238  0.89343434     0.18200
F1862       F  0.47081678  0.18686542  0.87123737    -0.19600
C1863       C  0.46947725  0.12637687  0.77391637    -0.21000
C1864       C  0.47399661  0.11597523  0.78022281    -0.09000
C1865       C  0.48216637  0.11766554  0.79014191     0.29800
C1866       C  0.48507600  0.12961415  0.79415660    -0.21000
C1867       C  0.48021324  0.14002942  0.78809775    -0.09000
C1868       C  0.47270675  0.13831015  0.77766723     0.29800
F1869       F  0.46767061  0.14814412  0.77173541    -0.19600
H1870       H  0.46304656  0.12524540  0.76634558     0.18200
H1871       H  0.49080658  0.13074994  0.80225954     0.18200
F1872       F  0.48653577  0.10780534  0.79654404    -0.19600
loop_ 
_geom_bond_atom_site_label_1 
_geom_bond_atom_site_label_2 
_geom_bond_distance 
_geom_bond_site_symmetry_2 
_ccdc_geom_bond_type 
N1            N2   1.324       .  A
N1            C5   1.351       .  A
N1           Cu9   2.102       .  S
N2            C3   1.344       .  A
N2           Cu8   2.073       .  S
C3            C4   1.382       .  A
C3            H6   1.082       .  S
C4            C5   1.390       .  A
C4         C1844   1.484       .  S
C5            H7   1.082       .  S
Cu8          N11   2.074       .  S
Cu9          N19   2.102       .  S
Cu10         N12   2.071       .  S
Cu10         N18   2.071       .  S
N11          N12   1.321       .  A
N11          C15   1.346       .  A
N12          C13   1.344       .  A
C13          C14   1.385       .  A
C13          H16   1.081       .  S
C14          C15   1.386       .  A
C14        C1854   1.480       .  S
C15          H17   1.081       .  S
N18          N19   1.323       .  A
N18          C22   1.344       .  A
N19          C20   1.351       .  A
C20          C21   1.390       .  A
C20          H23   1.082       .  S
C21          C22   1.382       .  A
C21        C1867   1.482       .  S
C22          H24   1.080       .  S
N25          N26   1.324       .  A
N25          C29   1.354       .  A
N25         Cu33   2.120       .  S
N26          C27   1.341       .  A
N26         Cu32   2.060       .  S
C27          C28   1.378       .  A
C27          H30   1.081       .  S
C28          C29   1.394       .  A
C28        C1817   1.484       .  S
C29          H31   1.083       .  S
Cu32         N35   2.061       .  S
Cu33         N43   2.120       .  S
Cu34         N36   2.068       .  S
Cu34         N42   2.069       .  S
N35          N36   1.318       .  A
N35          C39   1.343       .  A
N36          C37   1.346       .  A
C37          C38   1.386       .  A
C37          H40   1.082       .  S
C38          C39   1.384       .  A
C38        C1834   1.477       .  S
C39          H41   1.082       .  S
N42          N43   1.324       .  A
N42          C46   1.340       .  A
N43          C44   1.356       .  A
C44          C45   1.396       .  A
C44          H47   1.082       .  S
C45          C46   1.383       .  A
C45        C1824   1.494       .  S
C46          H48   1.081       .  S
N49          N50   1.323       .  A
N49          C53   1.352       .  A
N49         Cu57   2.108       .  S
N50          C51   1.342       .  A
N50         Cu56   2.064       .  S
C51          C52   1.380       .  A
C51          H54   1.083       .  S
C52          C53   1.393       .  A
C52        C1804   1.484       .  S
C53          H55   1.082       .  S
Cu56         N59   2.064       .  S
Cu57         N67   2.109       .  S
Cu58         N60   2.071       .  S
Cu58         N66   2.071       .  S
N59          N60   1.320       .  A
N59          C63   1.343       .  A
N60          C61   1.346       .  A
C61          C62   1.384       .  A
C61          H64   1.083       .  S
C62          C63   1.382       .  A
C62        C1837   1.472       .  S
C63          H65   1.083       .  S
N66          N67   1.325       .  A
N66          C70   1.343       .  A
N67          C68   1.353       .  A
C68          C69   1.390       .  A
C68          H71   1.082       .  S
C69          C70   1.379       .  A
C69        C1864   1.479       .  S
C70          H72   1.082       .  S
N73          N74   1.323       .  A
N73          C77   1.352       .  A
N73         Cu81   2.107       .  S
N74          C75   1.342       .  A
N74         Cu80   2.065       .  S
C75          C76   1.380       .  A
C75          H78   1.081       .  S
C76          C77   1.392       .  A
C76        C1774   1.482       .  S
C77          H79   1.083       .  S
Cu80         N83   2.067       .  S
Cu81         N91   2.108       .  S
Cu82         N84   2.069       .  S
Cu82         N90   2.070       .  S
N83          N84   1.320       .  A
N83          C87   1.344       .  A
N84          C85   1.345       .  A
C85          C86   1.384       .  A
C85          H88   1.084       .  S
C86          C87   1.384       .  A
C86        C1784   1.476       .  S
C87          H89   1.082       .  S
N90          N91   1.324       .  A
N90          C94   1.343       .  A
N91          C92   1.353       .  A
C92          C93   1.390       .  A
C92          H95   1.081       .  S
C93          C94   1.378       .  A
C93        C1794   1.478       .  S
C94          H96   1.081       .  S
N97          N98   1.324       .  A
N97         C101   1.355       .  A
N97        Cu105   2.116       .  S
N98          C99   1.339       .  A
N98        Cu104   2.061       .  S
C99         C100   1.378       .  A
C99         H102   1.082       .  S
C100        C101   1.394       .  A
C100       C1764   1.482       .  S
C101        H103   1.082       .  S
Cu104       N107   2.061       .  S
Cu105       N115   2.117       .  S
Cu106       N108   2.067       .  S
Cu106       N114   2.069       .  S
N107        N108   1.318       .  A
N107        C111   1.345       .  A
N108        C109   1.344       .  A
C109        C110   1.386       .  A
C109        H112   1.083       .  S
C110        C111   1.387       .  A
C110       C1787   1.480       .  S
C111        H113   1.081       .  S
N114        N115   1.325       .  A
N114        C118   1.341       .  A
N115        C116   1.355       .  A
C116        C117   1.392       .  A
C116        H119   1.083       .  S
C117        C118   1.380       .  A
C117       C1827   1.486       .  S
C118        H120   1.083       .  S
N121        N122   1.323       .  A
N121        C125   1.353       .  A
N121       Cu129   2.110       .  S
N122        C123   1.342       .  A
N122       Cu128   2.064       .  S
C123        C124   1.380       .  A
C123        H126   1.083       .  S
C124        C125   1.394       .  A
C124       C1754   1.486       .  S
C125        H127   1.082       .  S
Cu128       N131   2.065       .  S
Cu129       N139   2.111       .  S
Cu130       N132   2.071       .  S
Cu130       N138   2.073       .  S
N131        N132   1.319       .  A
N131        C135   1.343       .  A
N132        C133   1.346       .  A
C133        C134   1.388       .  A
C133        H136   1.081       .  S
C134        C135   1.386       .  A
C134       C1857   1.484       .  S
C135        H137   1.081       .  S
N138        N139   1.324       .  A
N138        C142   1.343       .  A
N139        C140   1.353       .  A
C140        C141   1.393       .  A
C140        H143   1.082       .  S
C141        C142   1.383       .  A
C141       C1797   1.489       .  S
C142        H144   1.082       .  S
N145        N146   1.322       .  A
N145        C149   1.351       .  A
N145       Cu153   2.106       .  S
N146        C147   1.343       .  A
N146       Cu152   2.063       .  S
C147        C148   1.382       .  A
C147        H150   1.082       .  S
C148        C149   1.393       .  A
C148       C1814   1.486       .  S
C149        H151   1.083       .  S
Cu152       N155   2.064       .  S
Cu153       N163   2.107       .  S
Cu154       N156   2.079       .  S
Cu154       N162   2.079       .  S
N155        N156   1.320       .  A
N155        C159   1.342       .  A
N156        C157   1.348       .  A
C157        C158   1.390       .  A
C157        H160   1.081       .  S
C158        C159   1.385       .  A
C158       C1744   1.485       .  S
C159        H161   1.083       .  S
N162        N163   1.325       .  A
N162        C166   1.344       .  A
N163        C164   1.352       .  A
C164        C165   1.390       .  A
C164        H167   1.081       .  S
C165        C166   1.381       .  A
C165       C1734   1.483       .  S
C166        H168   1.082       .  S
N169        N170   1.322       .  A
N169        C173   1.354       .  A
N169       Cu177   2.110       .  S
N170        C171   1.340       .  A
N170       Cu176   2.054       .  S
C171        C172   1.377       .  A
C171        H174   1.081       .  S
C172        C173   1.393       .  A
C172       C1807   1.479       .  S
C173        H175   1.081       .  S
Cu176       N179   2.055       .  S
Cu177       N187   2.112       .  S
Cu178       N180   2.076       .  S
Cu178       N186   2.079       .  S
N179        N180   1.319       .  A
N179        C183   1.341       .  A
N180        C181   1.349       .  A
C181        C182   1.387       .  A
C181        H184   1.082       .  S
C182        C183   1.380       .  A
C182       C1747   1.473       .  S
C183        H185   1.083       .  S
N186        N187   1.327       .  A
N186        C190   1.342       .  A
N187        C188   1.354       .  A
C188        C189   1.389       .  A
C188        H191   1.082       .  S
C189        C190   1.379       .  A
C189       C1724   1.480       .  S
C190        H192   1.082       .  S
N193        N194   1.322       .  A
N193        C197   1.351       .  A
N193       Cu201   2.098       .  S
N194        C195   1.344       .  A
N194       Cu200   2.071       .  S
C195        C196   1.383       .  A
C195        H198   1.082       .  S
C196        C197   1.391       .  A
C196       C1704   1.484       .  S
C197        H199   1.083       .  S
Cu200       N203   2.072       .  S
Cu201       N211   2.099       .  S
Cu202       N204   2.085       .  S
Cu202       N210   2.085       .  S
N203        N204   1.322       .  A
N203        C207   1.345       .  A
N204        C205   1.347       .  A
C205        C206   1.388       .  A
C205        H208   1.082       .  S
C206        C207   1.385       .  A
C206       C1714   1.484       .  S
C207        H209   1.081       .  S
N210        N211   1.324       .  A
N210        C214   1.346       .  A
N211        C212   1.350       .  A
C212        C213   1.388       .  A
C212        H215   1.082       .  S
C213        C214   1.384       .  A
C213       C1737   1.483       .  S
C214        H216   1.081       .  S
N217        N218   1.324       .  A
N217        C221   1.355       .  A
N217       Cu225   2.120       .  S
N218        C219   1.340       .  A
N218       Cu224   2.063       .  S
C219        C220   1.378       .  A
C219        H222   1.083       .  S
C220        C221   1.395       .  A
C220       C1674   1.485       .  S
C221        H223   1.081       .  S
Cu224       N227   2.064       .  S
Cu225       N235   2.121       .  S
Cu226       N228   2.067       .  S
Cu226       N234   2.069       .  S
N227        N228   1.318       .  A
N227        C231   1.343       .  A
N228        C229   1.347       .  A
C229        C230   1.387       .  A
C229        H232   1.082       .  S
C230        C231   1.386       .  A
C230       C1684   1.480       .  S
C231        H233   1.082       .  S
N234        N235   1.325       .  A
N234        C238   1.340       .  A
N235        C236   1.357       .  A
C236        C237   1.393       .  A
C236        H239   1.082       .  S
C237        C238   1.377       .  A
C237       C1694   1.483       .  S
C238        H240   1.082       .  S
N241        N242   1.323       .  A
N241        C245   1.352       .  A
N241       Cu249   2.107       .  S
N242        C243   1.342       .  A
N242       Cu248   2.068       .  S
C243        C244   1.381       .  A
C243        H246   1.082       .  S
C244        C245   1.392       .  A
C244       C1664   1.484       .  S
C245        H247   1.084       .  S
Cu248       N251   2.069       .  S
Cu249       N259   2.108       .  S
Cu250       N252   2.083       .  S
Cu250       N258   2.084       .  S
N251        N252   1.319       .  A
N251        C255   1.344       .  A
N252        C253   1.348       .  A
C253        C254   1.391       .  A
C253        H256   1.080       .  S
C254        C255   1.387       .  A
C254       C1717   1.488       .  S
C255        H257   1.081       .  S
N258        N259   1.323       .  A
N258        C262   1.342       .  A
N259        C260   1.354       .  A
C260        C261   1.395       .  A
C260        H263   1.081       .  S
C261        C262   1.388       .  A
C261       C1697   1.499       .  S
C262        H264   1.080       .  S
N265        N266   1.324       .  A
N265        C269   1.354       .  A
N265       Cu273   2.114       .  S
N266        C267   1.342       .  A
N266       Cu272   2.067       .  S
C267        C268   1.379       .  A
C267        H270   1.082       .  S
C268        C269   1.393       .  A
C268       C1654   1.485       .  S
C269        H271   1.082       .  S
Cu272       N275   2.066       .  S
Cu273       N283   2.114       .  S
Cu274       N276   2.070       .  S
Cu274       N282   2.071       .  S
N275        N276   1.318       .  A
N275        C279   1.343       .  A
N276        C277   1.347       .  A
C277        C278   1.387       .  A
C277        H280   1.082       .  S
C278        C279   1.386       .  A
C278       C1687   1.481       .  S
C279        H281   1.082       .  S
N282        N283   1.324       .  A
N282        C286   1.339       .  A
N283        C284   1.355       .  A
C284        C285   1.397       .  A
C284        H287   1.080       .  S
C285        C286   1.385       .  A
C285       C1727   1.497       .  S
C286        H288   1.080       .  S
N289        N290   1.323       .  A
N289        C293   1.351       .  A
N289       Cu297   2.107       .  S
N290        C291   1.344       .  A
N290       Cu296   2.068       .  S
C291        C292   1.383       .  A
C291        H294   1.081       .  S
C292        C293   1.392       .  A
C292       C1624   1.486       .  S
C293        H295   1.084       .  S
Cu296       N299   2.069       .  S
Cu297       N307   2.107       .  S
Cu298       N300   2.070       .  S
Cu298       N306   2.070       .  S
N299        N300   1.320       .  A
N299        C303   1.342       .  A
N300        C301   1.347       .  A
C301        C302   1.386       .  A
C301        H304   1.080       .  S
C302        C303   1.384       .  A
C302       C1634   1.478       .  S
C303        H305   1.083       .  S
N306        N307   1.324       .  A
N306        C310   1.342       .  A
N307        C308   1.353       .  A
C308        C309   1.391       .  A
C308        H311   1.082       .  S
C309        C310   1.380       .  A
C309       C1644   1.483       .  S
C310        H312   1.083       .  S
N313        N314   1.323       .  A
N313        C317   1.353       .  A
N313       Cu321   2.108       .  S
N314        C315   1.342       .  A
N314       Cu320   2.063       .  S
C315        C316   1.379       .  A
C315        H318   1.083       .  S
C316        C317   1.392       .  A
C316       C1604   1.483       .  S
C317        H319   1.083       .  S
Cu320       N323   2.064       .  S
Cu321       N331   2.109       .  S
Cu322       N324   2.072       .  S
Cu322       N330   2.073       .  S
N323        N324   1.320       .  A
N323        C327   1.344       .  A
N324        C325   1.346       .  A
C325        C326   1.386       .  A
C325        H328   1.082       .  S
C326        C327   1.383       .  A
C326       C1614   1.476       .  S
C327        H329   1.082       .  S
N330        N331   1.325       .  A
N330        C334   1.343       .  A
N331        C332   1.352       .  A
C332        C333   1.390       .  A
C332        H335   1.082       .  S
C333        C334   1.380       .  A
C333       C1647   1.480       .  S
C334        H336   1.080       .  S
N337        N338   1.323       .  A
N337        C341   1.351       .  A
N337       Cu345   2.102       .  S
N338        C339   1.343       .  A
N338       Cu344   2.069       .  S
C339        C340   1.381       .  A
C339        H342   1.083       .  S
C340        C341   1.391       .  A
C340       C1584   1.482       .  S
C341        H343   1.081       .  S
Cu344       N347   2.070       .  S
Cu345       N355   2.102       .  S
Cu346       N348   2.073       .  S
Cu346       N354   2.073       .  S
N347        N348   1.321       .  A
N347        C351   1.346       .  A
N348        C349   1.343       .  A
C349        C350   1.386       .  A
C349        H352   1.083       .  S
C350        C351   1.387       .  A
C350       C1637   1.482       .  S
C351        H353   1.080       .  S
N354        N355   1.323       .  A
N354        C358   1.345       .  A
N355        C356   1.350       .  A
C356        C357   1.390       .  A
C356        H359   1.083       .  S
C357        C358   1.383       .  A
C357       C1594   1.484       .  S
C358        H360   1.081       .  S
N361        N362   1.322       .  A
N361        C365   1.352       .  A
N361       Cu369   2.107       .  S
N362        C363   1.343       .  A
N362       Cu368   2.065       .  S
C363        C364   1.382       .  A
C363        H366   1.082       .  S
C364        C365   1.394       .  A
C364       C1564   1.488       .  S
C365        H367   1.082       .  S
Cu368       N371   2.066       .  S
Cu369       N379   2.108       .  S
Cu370       N372   2.069       .  S
Cu370       N378   2.069       .  S
N371        N372   1.321       .  A
N371        C375   1.342       .  A
N372        C373   1.346       .  A
C373        C374   1.385       .  A
C373        H376   1.081       .  S
C374        C375   1.384       .  A
C374       C1577   1.477       .  S
C375        H377   1.081       .  S
N378        N379   1.324       .  A
N378        C382   1.344       .  A
N379        C380   1.351       .  A
C380        C381   1.390       .  A
C380        H383   1.084       .  S
C381        C382   1.380       .  A
C381       C1597   1.482       .  S
C382        H384   1.080       .  S
N385        N386   1.325       .  A
N385        C389   1.351       .  A
N385       Cu393   2.108       .  S
N386        C387   1.343       .  A
N386       Cu392   2.069       .  S
C387        C388   1.380       .  A
C387        H390   1.083       .  S
C388        C389   1.391       .  A
C388       C1544   1.483   1_655  S
C389        H391   1.083   1_655  S
Cu392       N395   2.068       .  S
Cu393       N403   2.106       .  S
Cu394       N396   2.056       .  S
Cu394       N402   2.057       .  S
N395        N396   1.318       .  A
N395        C399   1.345       .  A
N396        C397   1.342       .  A
C397        C398   1.386       .  A
C397        H400   1.081       .  S
C398        C399   1.387       .  A
C398       C1574   1.481       .  S
C399        H401   1.082       .  S
N402        N403   1.322       .  A
N402        C406   1.338       .  A
N403        C404   1.354       .  A
C404        C405   1.395       .  A
C404        H407   1.082       .  S
C405        C406   1.381       .  A
C405       C1554   1.488       .  S
C406        H408   1.081       .  S
N409        N410   1.323       .  A
N409        C413   1.354       .  A
N409       Cu417   2.111       .  S
N410        C411   1.340       .  A
N410       Cu416   2.059       .  S
C411        C412   1.379       .  A
C411        H414   1.083       .  S
C412        C413   1.394       .  A
C412       C1534   1.484       .  S
C413        H415   1.082       .  S
Cu416       N419   2.060       .  S
Cu417       N427   2.111       .  S
Cu418       N420   2.067       .  S
Cu418       N426   2.069       .  S
N419        N420   1.318       .  A
N419        C423   1.344       .  A
N420        C421   1.345       .  A
C421        C422   1.386       .  A
C421        H424   1.083       .  S
C422        C423   1.385       .  A
C422       C1617   1.478       .  S
C423        H425   1.082       .  S
N426        N427   1.325       .  A
N426        C430   1.341       .  A
N427        C428   1.354       .  A
C428        C429   1.390       .  A
C428        H431   1.082       .  S
C429        C430   1.380       .  A
C429       C1557   1.482       .  S
C430        H432   1.080       .  S
N433        N434   1.322       .  A
N433        C437   1.353       .  A
N433       Cu441   2.104       .  S
N434        C435   1.340       .  A
N434       Cu440   2.057       .  S
C435        C436   1.380       .  A
C435        H438   1.083       .  S
C436        C437   1.394       .  A
C436       C1587   1.485   1_556  S
C437        H439   1.082   1_556  S
Cu440       N443   2.057       .  S
Cu441       N451   2.105       .  S
Cu442       N444   2.077       .  S
Cu442       N450   2.079       .  S
N443        N444   1.319       .  A
N443        C447   1.342       .  A
N444        C445   1.348       .  A
C445        C446   1.388       .  A
C445        H448   1.083       .  S
C446        C447   1.383       .  A
C446       C1524   1.479       .  S
C447        H449   1.083       .  S
N450        N451   1.326       .  A
N450        C454   1.342       .  A
N451        C452   1.353       .  A
C452        C453   1.387       .  A
C452        H455   1.082       .  S
C453        C454   1.379       .  A
C453       C1514   1.476       .  S
C454        H456   1.082       .  S
N457        N458   1.325       .  A
N457        C461   1.354       .  A
N457       Cu465   2.117       .  S
N458        C459   1.341       .  A
N458       Cu464   2.066       .  S
C459        C460   1.378       .  A
C459        H462   1.083       .  S
C460        C461   1.393       .  A
C460       C1627   1.484       .  S
C461        H463   1.083       .  S
Cu464       N467   2.067       .  S
Cu465       N475   2.116       .  S
Cu466       N468   2.061       .  S
Cu466       N474   2.062       .  S
N467        N468   1.318       .  A
N467        C471   1.345       .  A
N468        C469   1.344       .  A
C469        C470   1.385       .  A
C469        H472   1.082       .  S
C470        C471   1.387       .  A
C470       C1527   1.480       .  S
C471        H473   1.082       .  S
N474        N475   1.324       .  A
N474        C478   1.339       .  A
N475        C476   1.356       .  A
C476        C477   1.393       .  A
C476        H479   1.082       .  S
C477        C478   1.379       .  A
C477       C1504   1.485       .  S
C478        H480   1.080       .  S
N481        N482   1.322       .  A
N481        C485   1.351       .  A
N481       Cu489   2.101       .  S
N482        C483   1.343       .  A
N482       Cu488   2.070       .  S
C483        C484   1.383       .  A
C483        H486   1.082       .  S
C484        C485   1.392       .  A
C484       C1847   1.488       .  S
C485        H487   1.083       .  S
Cu488       N491   2.070       .  S
Cu489       N499   2.102       .  S
Cu490       N492   2.071       .  S
Cu490       N498   2.070       .  S
N491        N492   1.320       .  A
N491        C495   1.344       .  A
N492        C493   1.345       .  A
C493        C494   1.386       .  A
C493        H496   1.081       .  S
C494        C495   1.385       .  A
C494       C1484   1.479       .  S
C495        H497   1.083       .  S
N498        N499   1.323       .  A
N498        C502   1.343       .  A
N499        C500   1.351       .  A
C500        C501   1.391       .  A
C500        H503   1.082       .  S
C501        C502   1.381       .  A
C501       C1494   1.482       .  S
C502        H504   1.083       .  S
N505        N506   1.323       .  A
N505        C509   1.353       .  A
N505       Cu513   2.105       .  S
N506        C507   1.341       .  A
N506       Cu512   2.063       .  S
C507        C508   1.379       .  A
C507        H510   1.080       .  S
C508        C509   1.391       .  A
C508       C1464   1.480       .  S
C509        H511   1.082       .  S
Cu512       N515   2.064       .  S
Cu513       N523   2.106       .  S
Cu514       N516   2.073       .  S
Cu514       N522   2.075       .  S
N515        N516   1.320       .  A
N515        C519   1.343       .  A
N516        C517   1.347       .  A
C517        C518   1.387       .  A
C517        H520   1.082       .  S
C518        C519   1.384       .  A
C518       C1474   1.479       .  S
C519        H521   1.083       .  S
N522        N523   1.325       .  A
N522        C526   1.344       .  A
N523        C524   1.352       .  A
C524        C525   1.388       .  A
C524        H527   1.082       .  S
C525        C526   1.380       .  A
C525       C1497   1.480       .  S
C526        H528   1.080       .  S
N529        N530   1.324       .  A
N529        C533   1.353       .  A
N529       Cu537   2.109       .  S
N530        C531   1.342       .  A
N530       Cu536   2.069       .  S
C531        C532   1.380       .  A
C531        H534   1.083       .  S
C532        C533   1.392       .  A
C532       C1757   1.486       .  S
C533        H535   1.082       .  S
Cu536       N539   2.069       .  S
Cu537       N547   2.108       .  S
Cu538       N540   2.063       .  S
Cu538       N546   2.064       .  S
N539        N540   1.318       .  A
N539        C543   1.344       .  A
N540        C541   1.344       .  A
C541        C542   1.387       .  A
C541        H544   1.081       .  S
C542        C543   1.388       .  A
C542       C1487   1.484       .  S
C543        H545   1.081       .  S
N546        N547   1.323       .  A
N546        C550   1.339       .  A
N547        C548   1.354       .  A
C548        C549   1.394       .  A
C548        H551   1.083       .  S
C549        C550   1.382       .  A
C549       C1517   1.489       .  S
C550        H552   1.081       .  S
N553        N554   1.324       .  A
N553        C557   1.352       .  A
N553       Cu561   2.110       .  S
N554        C555   1.340       .  A
N554       Cu560   2.059       .  S
C555        C556   1.379       .  A
C555        H558   1.083       .  S
C556        C557   1.394       .  A
C556       C1454   1.484       .  S
C557        H559   1.082       .  S
Cu560       N563   2.060       .  S
Cu561       N571   2.110       .  S
Cu562       N564   2.067       .  S
Cu562       N570   2.069       .  S
N563        N564   1.318       .  A
N563        C567   1.344       .  A
N564        C565   1.345       .  A
C565        C566   1.385       .  A
C565        H568   1.082       .  S
C566        C567   1.384       .  A
C566       C1477   1.476       .  S
C567        H569   1.082       .  S
N570        N571   1.323       .  A
N570        C574   1.338       .  A
N571        C572   1.355       .  A
C572        C573   1.397       .  A
C572        H575   1.080       .  S
C573        C574   1.384       .  A
C573       C1507   1.496       .  S
C574        H576   1.081       .  S
N577        N578   1.323       .  A
N577        C581   1.353       .  A
N577       Cu585   2.107       .  S
N578        C579   1.342       .  A
N578       Cu584   2.069       .  S
C579        C580   1.380       .  A
C579        H582   1.083       .  S
C580        C581   1.392       .  A
C580       C1677   1.483       .  S
C581        H583   1.082       .  S
Cu584       N587   2.069       .  S
Cu585       N595   2.107       .  S
Cu586       N588   2.069       .  S
Cu586       N594   2.070       .  S
N587        N588   1.320       .  A
N587        C591   1.345       .  A
N588        C589   1.345       .  A
C589        C590   1.384       .  A
C589        H592   1.082       .  S
C590        C591   1.384       .  A
C590       C1444   1.476       .  S
C591        H593   1.082       .  S
N594        N595   1.324       .  A
N594        C598   1.343       .  A
N595        C596   1.351       .  A
C596        C597   1.390       .  A
C596        H599   1.083       .  S
C597        C598   1.380       .  A
C597       C1434   1.481       .  S
C598        H600   1.081       .  S
N601        N602   1.322       .  A
N601        C605   1.350       .  A
N601       Cu609   2.091       .  S
N602        C603   1.343       .  A
N602       Cu608   2.071       .  S
C603        C604   1.382       .  A
C603        H606   1.083       .  S
C604        C605   1.389       .  A
C604       C1467   1.480       .  S
C605        H607   1.081       .  S
Cu608       N611   2.072       .  S
Cu609       N619   2.092       .  S
Cu610       N612   2.083       .  S
Cu610       N618   2.083       .  S
N611        N612   1.321       .  A
N611        C615   1.344       .  A
N612        C613   1.348       .  A
C613        C614   1.388       .  A
C613        H616   1.081       .  S
C614        C615   1.385       .  A
C614       C1424   1.483       .  S
C615        H617   1.082       .  S
N618        N619   1.324       .  A
N618        C622   1.345       .  A
N619        C620   1.350       .  A
C620        C621   1.386       .  A
C620        H623   1.082       .  S
C621        C622   1.382       .  A
C621       C1414   1.479       .  S
C622        H624   1.083       .  S
N625        N626   1.324       .  A
N625        C629   1.352       .  A
N625       Cu633   2.106       .  S
N626        C627   1.341       .  A
N626       Cu632   2.068       .  S
C627        C628   1.380       .  A
C627        H630   1.081       .  S
C628        C629   1.392       .  A
C628       C1457   1.484       .  S
C629        H631   1.081       .  S
Cu632       N635   2.069       .  S
Cu633       N643   2.105       .  S
Cu634       N636   2.074       .  S
Cu634       N642   2.075       .  S
N635        N636   1.318       .  A
N635        C639   1.346       .  A
N636        C637   1.344       .  A
C637        C638   1.389       .  A
C637        H640   1.082       .  S
C638        C639   1.389       .  A
C638       C1427   1.488       .  S
C639        H641   1.080       .  S
N642        N643   1.323       .  A
N642        C646   1.341       .  A
N643        C644   1.354       .  A
C644        C645   1.395       .  A
C644        H647   1.080       .  S
C645        C646   1.385       .  A
C645       C1404   1.495       .  S
C646        H648   1.082       .  S
N649        N650   1.323       .  A
N649        C653   1.354       .  A
N649       Cu657   2.110       .  S
N650        C651   1.341       .  A
N650       Cu656   2.060       .  S
C651        C652   1.378       .  A
C651        H654   1.082       .  S
C652        C653   1.393       .  A
C652       C1657   1.482       .  S
C653        H655   1.082       .  S
Cu656       N659   2.062       .  S
Cu657       N667   2.111       .  S
Cu658       N660   2.068       .  S
Cu658       N666   2.069       .  S
N659        N660   1.320       .  A
N659        C663   1.343       .  A
N660        C661   1.346       .  A
C661        C662   1.384       .  A
C661        H664   1.082       .  S
C662        C663   1.382       .  A
C662       C1447   1.472       .  S
C663        H665   1.083       .  S
N666        N667   1.325       .  A
N666        C670   1.342       .  A
N667        C668   1.353       .  A
C668        C669   1.390       .  A
C668        H671   1.082       .  S
C669        C670   1.379       .  A
C669       C1417   1.480       .  S
C670        H672   1.080       .  S
N673        N674   1.323       .  A
N673        C677   1.354       .  A
N673       Cu681   2.116       .  S
N674        C675   1.340       .  A
N674       Cu680   2.057       .  S
C675        C676   1.379       .  A
C675        H678   1.081       .  S
C676        C677   1.394       .  A
C676       C1384   1.486       .  S
C677        H679   1.083       .  S
Cu680       N683   2.057       .  S
Cu681       N691   2.117       .  S
Cu682       N684   2.071       .  S
Cu682       N690   2.073       .  S
N683        N684   1.318       .  A
N683        C687   1.341       .  A
N684        C685   1.348       .  A
C685        C686   1.389       .  A
C685        H688   1.082       .  S
C686        C687   1.385       .  A
C686       C1394   1.482       .  S
C687        H689   1.083       .  S
N690        N691   1.326       .  A
N690        C694   1.341       .  A
N691        C692   1.356       .  A
C692        C693   1.391       .  A
C692        H695   1.082       .  S
C693        C694   1.379       .  A
C693       C1407   1.483       .  S
C694        H696   1.081       .  S
N697        N698   1.323       .  A
N697        C701   1.353       .  A
N697       Cu705   2.106       .  S
N698        C699   1.342       .  A
N698       Cu704   2.065       .  S
C699        C700   1.379       .  A
C699        H702   1.082       .  S
C700        C701   1.392       .  A
C700       C1374   1.482       .  S
C701        H703   1.082       .  S
Cu704       N707   2.065       .  S
Cu705       N715   2.107       .  S
Cu706       N708   2.073       .  S
Cu706       N714   2.074       .  S
N707        N708   1.320       .  A
N707        C711   1.343       .  A
N708        C709   1.347       .  A
C709        C710   1.386       .  A
C709        H712   1.083       .  S
C710        C711   1.384       .  A
C710       C1397   1.477       .  S
C711        H713   1.082       .  S
N714        N715   1.325       .  A
N714        C718   1.343       .  A
N715        C716   1.352       .  A
C716        C717   1.389       .  A
C716        H719   1.082       .  S
C717        C718   1.380       .  A
C717       C1437   1.480       .  S
C718        H720   1.081       .  S
N721        N722   1.323       .  A
N721        C725   1.352       .  A
N721       Cu729   2.107       .  S
N722        C723   1.343       .  A
N722       Cu728   2.069       .  S
C723        C724   1.381       .  A
C723        H726   1.083       .  S
C724        C725   1.393       .  A
C724       C1607   1.487       .  S
C725        H727   1.082       .  S
Cu728       N731   2.070       .  S
Cu729       N739   2.107       .  S
Cu730       N732   2.069       .  S
Cu730       N738   2.068       .  S
N731        N732   1.320       .  A
N731        C735   1.345       .  A
N732        C733   1.343       .  A
C733        C734   1.386       .  A
C733        H736   1.082       .  S
C734        C735   1.386       .  A
C734       C1354   1.481       .  S
C735        H737   1.082       .  S
N738        N739   1.323       .  A
N738        C742   1.344       .  A
N739        C740   1.351       .  A
C740        C741   1.390       .  A
C740        H743   1.083       .  S
C741        C742   1.380       .  A
C741       C1364   1.481       .  S
C742        H744   1.080       .  S
N745        N746   1.323       .  A
N745        C749   1.354       .  A
N745       Cu753   2.114       .  S
N746        C747   1.340       .  A
N746       Cu752   2.060       .  S
C747        C748   1.377       .  A
C747        H750   1.083       .  S
C748        C749   1.393       .  A
C748       C1387   1.480       .  S
C749        H751   1.082       .  S
Cu752       N755   2.062       .  S
Cu753       N763   2.114       .  S
Cu754       N756   2.062       .  S
Cu754       N762   2.063       .  S
N755        N756   1.319       .  A
N755        C759   1.343       .  A
N756        C757   1.345       .  A
C757        C758   1.384       .  A
C757        H760   1.082       .  S
C758        C759   1.383       .  A
C758       C1344   1.474       .  S
C759        H761   1.083       .  S
N762        N763   1.325       .  A
N762        C766   1.341       .  A
N763        C764   1.354       .  A
C764        C765   1.392       .  A
C764        H767   1.082       .  S
C765        C766   1.377       .  A
C765       C1367   1.481       .  S
C766        H768   1.082       .  S
N769        N770   1.323       .  A
N769        C773   1.352   1_655  A
N769       Cu777   2.101       .  S
N770        C771   1.342       .  A
N770       Cu776   2.066       .  S
C771        C772   1.380   1_655  A
C771        H774   1.083       .  S
C772        C773   1.391       .  A
C772       C1314   1.481       .  S
C773        H775   1.081       .  S
Cu776       N779   2.068       .  S
Cu777       N787   2.102       .  S
Cu778       N780   2.082       .  S
Cu778       N786   2.083       .  S
N779        N780   1.320       .  A
N779        C783   1.344       .  A
N780        C781   1.348       .  A
C781        C782   1.388       .  A
C781        H784   1.084       .  S
C782        C783   1.385       .  A
C782       C1334   1.483       .  S
C783        H785   1.082       .  S
N786        N787   1.325       .  A
N786        C790   1.345       .  A
N787        C788   1.351       .  A
C788        C789   1.389       .  A
C788        H791   1.081       .  S
C789        C790   1.382       .  A
C789       C1324   1.483       .  S
C790        H792   1.081       .  S
N793        N794   1.324       .  A
N793        C797   1.353       .  A
N793       Cu801   2.110       .  S
N794        C795   1.342       .  A
N794       Cu800   2.068       .  S
C795        C796   1.380       .  A
C795        H798   1.082       .  S
C796        C797   1.392       .  A
C796       C1294   1.482       .  S
C797        H799   1.082       .  S
Cu800       N803   2.068       .  S
Cu801       N811   2.111       .  S
Cu802       N804   2.079       .  S
Cu802       N810   2.080       .  S
N803        N804   1.319       .  A
N803        C807   1.344       .  A
N804        C805   1.348       .  A
C805        C806   1.388       .  A
C805        H808   1.081       .  S
C806        C807   1.386       .  A
C806       C1337   1.483       .  S
C807        H809   1.082       .  S
N810        N811   1.324       .  A
N810        C814   1.340       .  A
N811        C812   1.355       .  A
C812        C813   1.396       .  A
C812        H815   1.081       .  S
C813        C814   1.386       .  A
C813       C1304   1.497       .  S
C814        H816   1.082       .  S
N817        N818   1.323       .  A
N817        C821   1.351       .  A
N817       Cu825   2.106       .  S
N818        C819   1.343       .  A
N818       Cu824   2.067       .  S
C819        C820   1.382       .  A
C819        H822   1.082       .  S
C820        C821   1.393       .  A
C820       C1537   1.486       .  S
C821        H823   1.083       .  S
Cu824       N827   2.068       .  S
Cu825       N835   2.106       .  S
Cu826       N828   2.071       .  S
Cu826       N834   2.071       .  S
N827        N828   1.319       .  A
N827        C831   1.343       .  A
N828        C829   1.346       .  A
C829        C830   1.388       .  A
C829        H832   1.081       .  S
C830        C831   1.387       .  A
C830       C1357   1.485       .  S
C831        H833   1.082       .  S
N834        N835   1.324       .  A
N834        C838   1.343       .  A
N835        C836   1.352       .  A
C836        C837   1.390       .  A
C836        H839   1.082       .  S
C837        C838   1.380       .  A
C837       C1327   1.481       .  S
C838        H840   1.084       .  S
N841        N842   1.324       .  A
N841        C845   1.353       .  A
N841       Cu849   2.117       .  S
N842        C843   1.341       .  A
N842       Cu848   2.059       .  S
C843        C844   1.379       .  A
C843        H846   1.081       .  S
C844        C845   1.394       .  A
C844       C1377   1.485       .  S
C845        H847   1.082       .  S
Cu848       N851   2.059       .  S
Cu849       N859   2.117       .  S
Cu850       N852   2.069       .  S
Cu850       N858   2.071       .  S
N851        N852   1.319       .  A
N851        C855   1.343       .  A
N852        C853   1.346       .  A
C853        C854   1.385       .  A
C853        H856   1.082       .  S
C854        C855   1.383       .  A
C854       C1347   1.474       .  S
C855        H857   1.082       .  S
N858        N859   1.325       .  A
N858        C862   1.340       .  A
N859        C860   1.356       .  A
C860        C861   1.393       .  A
C860        H863   1.081       .  S
C861        C862   1.379       .  A
C861       C1307   1.485       .  S
C862        H864   1.083       .  S
N865        N866   1.323       .  A
N865        C869   1.350       .  A
N865       Cu873   2.100       .  S
N866        C867   1.342       .  A
N866       Cu872   2.069       .  S
C867        C868   1.382       .  A
C867        H870   1.082       .  S
C868        C869   1.392       .  A
C868       C1264   1.486       .  S
C869        H871   1.082       .  S
Cu872       N875   2.069       .  S
Cu873       N883   2.100       .  S
Cu874       N876   2.070       .  S
Cu874       N882   2.069       .  S
N875        N876   1.320       .  A
N875        C879   1.345       .  A
N876        C877   1.344       .  A
C877        C878   1.386       .  A
C877        H880   1.082       .  S
C878        C879   1.387       .  A
C878       C1274   1.482       .  S
C879        H881   1.082       .  S
N882        N883   1.323       .  A
N882        C886   1.343       .  A
N883        C884   1.351       .  A
C884        C885   1.390       .  A
C884        H887   1.082       .  S
C885        C886   1.381       .  A
C885       C1284   1.481       .  S
C886        H888   1.081       .  S
N889        N890   1.322       .  A
N889        C893   1.351       .  A
N889       Cu897   2.101       .  S
N890        C891   1.342       .  A
N890       Cu896   2.066       .  S
C891        C892   1.381       .  A
C891        H894   1.082       .  S
C892        C893   1.392       .  A
C892       C1707   1.484       .  S
C893        H895   1.083       .  S
Cu896       N899   2.068       .  S
Cu897       N907   2.102       .  S
Cu898       N900   2.073       .  S
Cu898       N906   2.073       .  S
N899        N900   1.320       .  A
N899        C903   1.343       .  A
N900        C901   1.346       .  A
C901        C902   1.388       .  A
C901        H904   1.081       .  S
C902        C903   1.387       .  A
C902       C1254   1.484       .  S
C903        H905   1.082       .  S
N906        N907   1.324       .  A
N906        C910   1.344       .  A
N907        C908   1.351       .  A
C908        C909   1.389       .  A
C908        H911   1.082       .  S
C909        C910   1.380       .  A
C909       C1287   1.479       .  S
C910        H912   1.082       .  S
N913        N914   1.322       .  A
N913        C917   1.351       .  A
N913       Cu921   2.101       .  S
N914        C915   1.342       .  A
N914       Cu920   2.067       .  S
C915        C916   1.382       .  A
C915        H918   1.082       .  S
C916        C917   1.393       .  A
C916       C1234   1.485       .  S
C917        H919   1.081       .  S
Cu920       N923   2.068       .  S
Cu921       N931   2.102       .  S
Cu922       N924   2.072       .  S
Cu922       N930   2.072       .  S
N923        N924   1.320       .  A
N923        C927   1.343       .  A
N924        C925   1.346       .  A
C925        C926   1.388       .  A
C925        H928   1.081       .  S
C926        C927   1.387       .  A
C926       C1277   1.485       .  S
C927        H929   1.081       .  S
N930        N931   1.324       .  A
N930        C934   1.344       .  A
N931        C932   1.350       .  A
C932        C933   1.389       .  A
C932        H935   1.083       .  S
C933        C934   1.380       .  A
C933       C1244   1.478       .  S
C934        H936   1.083       .  S
N937        N938   1.323       .  A
N937        C941   1.352       .  A
N937       Cu945   2.110       .  S
N938        C939   1.342       .  A
N938       Cu944   2.065       .  S
C939        C940   1.381       .  A
C939        H942   1.081       .  S
C940        C941   1.393       .  A
C940       C1297   1.484       .  S
C941        H943   1.083       .  S
Cu944       N947   2.066       .  S
Cu945       N955   2.110       .  S
Cu946       N948   2.073       .  S
Cu946       N954   2.074       .  S
N947        N948   1.320       .  A
N947        C951   1.344       .  A
N948        C949   1.346       .  A
C949        C950   1.384       .  A
C949        H952   1.083       .  S
C950        C951   1.383       .  A
C950       C1214   1.475       .  S
C951        H953   1.082       .  S
N954        N955   1.324       .  A
N954        C958   1.343       .  A
N955        C956   1.353       .  A
C956        C957   1.391       .  A
C956        H959   1.081       .  S
C957        C958   1.381       .  A
C957       C1224   1.485       .  S
C958        H960   1.082       .  S
N961        N962   1.323       .  A
N961        C965   1.351       .  A
N961       Cu969   2.101       .  S
N962        C963   1.342       .  A
N962       Cu968   2.063       .  S
C963        C964   1.380       .  A
C963        H966   1.082       .  S
C964        C965   1.391       .  A
C964       C1317   1.481       .  S
C965        H967   1.082       .  S
Cu968       N971   2.065       .  S
Cu969       N979   2.101       .  S
Cu970       N972   2.073       .  S
Cu970       N978   2.074       .  S
N971        N972   1.320       .  A
N971        C975   1.344       .  A
N972        C973   1.346       .  A
C973        C974   1.385       .  A
C973        H976   1.082       .  S
C974        C975   1.383       .  A
C974       C1217   1.475       .  S
C975        H977   1.083       .  S
N978        N979   1.324       .  A
N978        C982   1.343       .  A
N979        C980   1.351       .  A
C980        C981   1.389       .  A
C980        H983   1.082       .  S
C981        C982   1.381       .  A
C981       C1247   1.482       .  S
C982        H984   1.082       .  S
N985        N986   1.323       .  A
N985        C989   1.352       .  A
N985       Cu993   2.108       .  S
N986        C987   1.343       .  A
N986       Cu992   2.070       .  S
C987        C988   1.383       .  A
C987        H990   1.082       .  S
C988        C989   1.393       .  A
C988       C1667   1.488       .  S
C989        H991   1.084       .  S
Cu992       N995   2.070       .  S
Cu993      N1003   2.109       .  S
Cu994       N996   2.075       .  S
Cu994      N1002   2.075       .  S
N995        N996   1.321       .  A
N995        C999   1.344       .  A
N996        C997   1.346       .  A
C997        C998   1.387       .  A
C997       H1000   1.081       .  S
C998        C999   1.385       .  A
C998       C1257   1.481       .  S
C999       H1001   1.082       .  S
N1002      N1003   1.324       .  A
N1002      C1006   1.345       .  A
N1003      C1004   1.352       .  A
C1004      C1005   1.390       .  A
C1004      H1007   1.081       .  S
C1005      C1006   1.381       .  A
C1005      C1227   1.482       .  S
C1006      H1008   1.081       .  S
N1009      N1010   1.324       .  A
N1009      C1013   1.351       .  A
N1009     Cu1017   2.104       .  S
N1010      C1011   1.344       .  A
N1010     Cu1016   2.077       .  S
C1011      C1012   1.382       .  A
C1011      H1014   1.081       .  S
C1012      C1013   1.390       .  A
C1012      C1237   1.483       .  S
C1013      H1015   1.081       .  S
Cu1016     N1019   2.077       .  S
Cu1017     N1027   2.103       .  S
Cu1018     N1020   2.068       .  S
Cu1018     N1026   2.068       .  S
N1019      N1020   1.320       .  A
N1019      C1023   1.346       .  A
N1020      C1021   1.344       .  A
C1021      C1022   1.386       .  A
C1021      H1024   1.082       .  S
C1022      C1023   1.389       .  A
C1022      C1204   1.484       .  S
C1023      H1025   1.082       .  S
N1026      N1027   1.322       .  A
N1026      C1030   1.341       .  A
N1027      C1028   1.353       .  A
C1028      C1029   1.393       .  A
C1028      H1031   1.082       .  S
C1029      C1030   1.382       .  A
C1029      C1197   1.487       .  S
C1030      H1032   1.083       .  S
N1033      N1034   1.323       .  A
N1033      C1037   1.350       .  A
N1033     Cu1041   2.094       .  S
N1034      C1035   1.344       .  A
N1034     Cu1040   2.077       .  S
C1035      C1036   1.383       .  A
C1035      H1038   1.081       .  S
C1036      C1037   1.389       .  A
C1036      C1267   1.483   1_545  S
C1037      H1039   1.082   1_545  S
Cu1040     N1043   2.078       .  S
Cu1041     N1051   2.094       .  S
Cu1042     N1044   2.075       .  S
Cu1042     N1050   2.075       .  S
N1043      N1044   1.321       .  A
N1043      C1047   1.346       .  A
N1044      C1045   1.345       .  A
C1045      C1046   1.386       .  A
C1045      H1048   1.083       .  S
C1046      C1047   1.387       .  A
C1046      C1207   1.483       .  S
C1047      H1049   1.080       .  S
N1050      N1051   1.323       .  A
N1050      C1054   1.344       .  A
N1051      C1052   1.350       .  A
C1052      C1053   1.388       .  A
C1052      H1055   1.082       .  S
C1053      C1054   1.381       .  A
C1053      C1184   1.477       .  S
C1054      H1056   1.082       .  S
N1057      N1058   1.322       .  A
N1057      C1061   1.352       .  A
N1057     Cu1065   2.109       .  S
N1058      C1059   1.341       .  A
N1058     Cu1064   2.063       .  S
C1059      C1060   1.382       .  A
C1059      H1062   1.082       .  S
C1060      C1061   1.395       .  A
C1060      C1547   1.491       .  S
C1061      H1063   1.082       .  S
Cu1064     N1067   2.062       .  S
Cu1065     N1075   2.109       .  S
Cu1066     N1068   2.068       .  S
Cu1066     N1074   2.069       .  S
N1067      N1068   1.319       .  A
N1067      C1071   1.342       .  A
N1068      C1069   1.345       .  A
C1069      C1070   1.387       .  A
C1069      H1072   1.082       .  S
C1070      C1071   1.386       .  A
C1070      C1174   1.481       .  S
C1071      H1073   1.082       .  S
N1074      N1075   1.325       .  A
N1074      C1078   1.343       .  A
N1075      C1076   1.353       .  A
C1076      C1077   1.388       .  A
C1076      H1079   1.083       .  S
C1077      C1078   1.378       .  A
C1077      C1194   1.476       .  S
C1078      H1080   1.082       .  S
N1081      N1082   1.324       .  A
N1081      C1085   1.355       .  A
N1081     Cu1089   2.120       .  S
N1082      C1083   1.340       .  A
N1082     Cu1088   2.059       .  S
C1083      C1084   1.377       .  A
C1083      H1086   1.082       .  S
C1084      C1085   1.394       .  A
C1084      C1567   1.482       .  S
C1085      H1087   1.082       .  S
Cu1088     N1091   2.058       .  S
Cu1089     N1099   2.120       .  S
Cu1090     N1092   2.064       .  S
Cu1090     N1098   2.067       .  S
N1091      N1092   1.318       .  A
N1091      C1095   1.342       .  A
N1092      C1093   1.346       .  A
C1093      C1094   1.385       .  A
C1093      H1096   1.083       .  S
C1094      C1095   1.383       .  A
C1094      C1177   1.473       .  S
C1095      H1097   1.083       .  S
N1098      N1099   1.326       .  A
N1098      C1102   1.339       .  A
N1099      C1100   1.356       .  A
C1100      C1101   1.392       .  A
C1100      H1103   1.082       .  S
C1101      C1102   1.378       .  A
C1101      C1167   1.483       .  S
C1102      H1104   1.080       .  S
N1105      N1106   1.324       .  A
N1105      C1109   1.353       .  A
N1105     Cu1113   2.115       .  S
N1106      C1107   1.341       .  A
N1106     Cu1112   2.061       .  S
C1107      C1108   1.378       .  A
C1107      H1110   1.081       .  S
C1108      C1109   1.393       .  A
C1108      C1777   1.482       .  S
C1109      H1111   1.083       .  S
Cu1112     N1115   2.061       .  S
Cu1113     N1123   2.115       .  S
Cu1114     N1116   2.062       .  S
Cu1114     N1122   2.064       .  S
N1115      N1116   1.318       .  A
N1115      C1119   1.343       .  A
N1116      C1117   1.345       .  A
C1117      C1118   1.384       .  A
C1117      H1120   1.082       .  S
C1118      C1119   1.383       .  A
C1118      C1154   1.472       .  S
C1119      H1121   1.083       .  S
N1122      N1123   1.323       .  A
N1122      C1126   1.338       .  A
N1123      C1124   1.356       .  A
C1124      C1125   1.395       .  A
C1124      H1127   1.083       .  S
C1125      C1126   1.382       .  A
C1125      C1164   1.491       .  S
C1126      H1128   1.081       .  S
N1129      N1130   1.322       .  A
N1129      C1133   1.352       .  A
N1129     Cu1137   2.104       .  S
N1130      C1131   1.341       .  A
N1130     Cu1136   2.060       .  S
C1131      C1132   1.381       .  A
C1131      H1134   1.082       .  S
C1132      C1133   1.393       .  A
C1132      C1767   1.484       .  S
C1133      H1135   1.082       .  S
Cu1136     N1139   2.060       .  S
Cu1137     N1147   2.105       .  S
Cu1138     N1140   2.072       .  S
Cu1138     N1146   2.073       .  S
N1139      N1140   1.320       .  A
N1139      C1143   1.342       .  A
N1140      C1141   1.346       .  A
C1141      C1142   1.386       .  A
C1141      H1144   1.083       .  S
C1142      C1143   1.382       .  A
C1142      C1157   1.475       .  S
C1143      H1145   1.082       .  S
N1146      N1147   1.325       .  A
N1146      C1150   1.343       .  A
N1147      C1148   1.351       .  A
C1148      C1149   1.389       .  A
C1148      H1151   1.083       .  S
C1149      C1150   1.382       .  A
C1149      C1187   1.483       .  S
C1150      H1152   1.081       .  S
C1153      C1154   1.402       .  A
C1153      C1158   1.396       .  A
C1153      H1160   1.083       .  S
C1154      C1155   1.405       .  A
C1155      C1156   1.399       .  A
C1155      F1162   1.357       .  S
C1156      C1157   1.404       .  A
C1156      H1161   1.083       .  S
C1157      C1158   1.407       .  A
C1158      F1159   1.357       .  S
C1163      C1164   1.409       .  A
C1163      C1168   1.411       .  A
C1163      H1170   1.082       .  S
C1164      C1165   1.409       .  A
C1165      C1166   1.394       .  A
C1165      F1172   1.357       .  S
C1166      C1167   1.401       .  A
C1166      H1171   1.084       .  S
C1167      C1168   1.408       .  A
C1168      F1169   1.357       .  S
C1173      C1174   1.405       .  A
C1173      C1178   1.394       .  A
C1173      H1180   1.082       .  S
C1174      C1175   1.409       .  A
C1175      C1176   1.401       .  A
C1175      F1182   1.357       .  S
C1176      C1177   1.402       .  A
C1176      H1181   1.083       .  S
C1177      C1178   1.404       .  A
C1178      F1179   1.358       .  S
C1183      C1184   1.402       .  A
C1183      C1188   1.400       .  A
C1183      H1190   1.083       .  S
C1184      C1185   1.406       .  A
C1185      C1186   1.403       .  A
C1185      F1192   1.357       .  S
C1186      C1187   1.405       .  A
C1186      H1191   1.083       .  S
C1187      C1188   1.408       .  A
C1188      F1189   1.357       .  S
C1193      C1194   1.404       .  A
C1193      C1198   1.404       .  A
C1193      H1200   1.084       .  S
C1194      C1195   1.403       .  A
C1195      C1196   1.400       .  A
C1195      F1202   1.358       .  S
C1196      C1197   1.407       .  A
C1196      H1201   1.084       .  S
C1197      C1198   1.409       .  A
C1198      F1199   1.357       .  S
C1203      C1204   1.406       .  A
C1203      C1208   1.399       .  A
C1203      H1210   1.083       .  S
C1204      C1205   1.407       .  A
C1205      C1206   1.400       .  A
C1205      F1212   1.357       .  S
C1206      C1207   1.405       .  A
C1206      H1211   1.083       .  S
C1207      C1208   1.406       .  A
C1208      F1209   1.357       .  S
C1213      C1214   1.403       .  A
C1213      C1218   1.400       .  A
C1213      H1220   1.082       .  S
C1214      C1215   1.406       .  A
C1215      C1216   1.398       .  A
C1215      F1222   1.358       .  S
C1216      C1217   1.403       .  A
C1216      H1221   1.081       .  S
C1217      C1218   1.405       .  A
C1218      F1219   1.357       .  S
C1223      C1224   1.406       .  A
C1223      C1228   1.402       .  A
C1223      H1230   1.083       .  S
C1224      C1225   1.407       .  A
C1225      C1226   1.405       .  A
C1225      F1232   1.357       .  S
C1226      C1227   1.406       .  A
C1226      H1231   1.083       .  S
C1227      C1228   1.404       .  A
C1228      F1229   1.357       .  S
C1233      C1234   1.407       .  A
C1233      C1238   1.402   1_565  A
C1233      H1240   1.082       .  S
C1234      C1235   1.407       .  A
C1235      C1236   1.401       .  A
C1235      F1242   1.357       .  S
C1236      C1237   1.405   1_565  A
C1236      H1241   1.084       .  S
C1237      C1238   1.406       .  A
C1238      F1239   1.357       .  S
C1243      C1244   1.405       .  A
C1243      C1248   1.403       .  A
C1243      H1250   1.084       .  S
C1244      C1245   1.404       .  A
C1245      C1246   1.400       .  A
C1245      F1252   1.357       .  S
C1246      C1247   1.405       .  A
C1246      H1251   1.085       .  S
C1247      C1248   1.407       .  A
C1248      F1249   1.357       .  S
C1253      C1254   1.406       .  A
C1253      C1258   1.400       .  A
C1253      H1260   1.082       .  S
C1254      C1255   1.409       .  A
C1255      C1256   1.398       .  A
C1255      F1262   1.357       .  S
C1256      C1257   1.403       .  A
C1256      H1261   1.084       .  S
C1257      C1258   1.407       .  A
C1258      F1259   1.357       .  S
C1263      C1264   1.408       .  A
C1263      C1268   1.402       .  A
C1263      H1270   1.082       .  S
C1264      C1265   1.408       .  A
C1265      C1266   1.401   1_565  A
C1265      F1272   1.356   1_565  S
C1266      C1267   1.405   1_545  A
C1266      H1271   1.084       .  S
C1267      C1268   1.406       .  A
C1268      F1269   1.357       .  S
C1273      C1274   1.404       .  A
C1273      C1278   1.396       .  A
C1273      H1280   1.084       .  S
C1274      C1275   1.407       .  A
C1275      C1276   1.400       .  A
C1275      F1282   1.357       .  S
C1276      C1277   1.406       .  A
C1276      H1281   1.083       .  S
C1277      C1278   1.408       .  A
C1278      F1279   1.356       .  S
C1283      C1284   1.406       .  A
C1283      C1288   1.402       .  A
C1283      H1290   1.083       .  S
C1284      C1285   1.406       .  A
C1285      C1286   1.402       .  A
C1285      F1292   1.357       .  S
C1286      C1287   1.404       .  A
C1286      H1291   1.084       .  S
C1287      C1288   1.405       .  A
C1288      F1289   1.357       .  S
C1293      C1294   1.403       .  A
C1293      C1298   1.402   1_655  A
C1293      H1300   1.082       .  S
C1294      C1295   1.408   1_655  A
C1295      C1296   1.402       .  A
C1295      F1302   1.357       .  S
C1296      C1297   1.403       .  A
C1296      H1301   1.082       .  S
C1297      C1298   1.409       .  A
C1298      F1299   1.357       .  S
C1303      C1304   1.407       .  A
C1303      C1308   1.394       .  A
C1303      H1310   1.083       .  S
C1304      C1305   1.414       .  A
C1305      C1306   1.412       .  A
C1305      F1312   1.356       .  S
C1306      C1307   1.406       .  A
C1306      H1311   1.083       .  S
C1307      C1308   1.403       .  A
C1308      F1309   1.358       .  S
C1313      C1314   1.406       .  A
C1313      C1318   1.401       .  A
C1313      H1320   1.084   1_455  S
C1314      C1315   1.405       .  A
C1315      C1316   1.401       .  A
C1315      F1322   1.357       .  S
C1316      C1317   1.406       .  A
C1316      H1321   1.083       .  S
C1317      C1318   1.406       .  A
C1318      F1319   1.357       .  S
C1323      C1324   1.406       .  A
C1323      C1328   1.402       .  A
C1323      H1330   1.083       .  S
C1324      C1325   1.406       .  A
C1325      C1326   1.403       .  A
C1325      F1332   1.357       .  S
C1326      C1327   1.406       .  A
C1326      H1331   1.083       .  S
C1327      C1328   1.405       .  A
C1328      F1329   1.357       .  S
C1333      C1334   1.405       .  A
C1333      C1338   1.403       .  A
C1333      H1340   1.082       .  S
C1334      C1335   1.407       .  A
C1335      C1336   1.398       .  A
C1335      F1342   1.357       .  S
C1336      C1337   1.404       .  A
C1336      H1341   1.083       .  S
C1337      C1338   1.407       .  A
C1338      F1339   1.357       .  S
C1343      C1344   1.402       .  A
C1343      C1348   1.396       .  A
C1343      H1350   1.083       .  S
C1344      C1345   1.406       .  A
C1345      C1346   1.400       .  A
C1345      F1352   1.357       .  S
C1346      C1347   1.403       .  A
C1346      H1351   1.083       .  S
C1347      C1348   1.406       .  A
C1348      F1349   1.357       .  S
C1353      C1354   1.403       .  A
C1353      C1358   1.396       .  A
C1353      H1360   1.084       .  S
C1354      C1355   1.407       .  A
C1355      C1356   1.401       .  A
C1355      F1362   1.357       .  S
C1356      C1357   1.407       .  A
C1356      H1361   1.084       .  S
C1357      C1358   1.409       .  A
C1358      F1359   1.356       .  S
C1363      C1364   1.402       .  A
C1363      C1368   1.400       .  A
C1363      H1370   1.083       .  S
C1364      C1365   1.408       .  A
C1365      C1366   1.404       .  A
C1365      F1372   1.357       .  S
C1366      C1367   1.404       .  A
C1366      H1371   1.082       .  S
C1367      C1368   1.408       .  A
C1368      F1369   1.357       .  S
C1373      C1374   1.406       .  A
C1373      C1378   1.402       .  A
C1373      H1380   1.084       .  S
C1374      C1375   1.405       .  A
C1375      C1376   1.402       .  A
C1375      F1382   1.357       .  S
C1376      C1377   1.408       .  A
C1376      H1381   1.083       .  S
C1377      C1378   1.405       .  A
C1378      F1379   1.357       .  S
C1383      C1384   1.404       .  A
C1383      C1388   1.403       .  A
C1383      H1390   1.082       .  S
C1384      C1385   1.411       .  A
C1385      C1386   1.401       .  A
C1385      F1392   1.357       .  S
C1386      C1387   1.401       .  A
C1386      H1391   1.083       .  S
C1387      C1388   1.408       .  A
C1388      F1389   1.357       .  S
C1393      C1394   1.405       .  A
C1393      C1398   1.394       .  A
C1393      H1400   1.082       .  S
C1394      C1395   1.408       .  A
C1395      C1396   1.403       .  A
C1395      F1402   1.357       .  S
C1396      C1397   1.405       .  A
C1396      H1401   1.082       .  S
C1397      C1398   1.405       .  A
C1398      F1399   1.357       .  S
C1403      C1404   1.407       .  A
C1403      C1408   1.396       .  A
C1403      H1410   1.082       .  S
C1404      C1405   1.412       .  A
C1405      C1406   1.410       .  A
C1405      F1412   1.356       .  S
C1406      C1407   1.405       .  A
C1406      H1411   1.083       .  S
C1407      C1408   1.404       .  A
C1408      F1409   1.358       .  S
C1413      C1414   1.403       .  A
C1413      C1418   1.401       .  A
C1413      H1420   1.082       .  S
C1414      C1415   1.406       .  A
C1415      C1416   1.403       .  A
C1415      F1422   1.357       .  S
C1416      C1417   1.403       .  A
C1416      H1421   1.083       .  S
C1417      C1418   1.407       .  A
C1418      F1419   1.358       .  S
C1423      C1424   1.405       .  A
C1423      C1428   1.402       .  A
C1423      H1430   1.083       .  S
C1424      C1425   1.406       .  A
C1425      C1426   1.398       .  A
C1425      F1432   1.357       .  S
C1426      C1427   1.406       .  A
C1426      H1431   1.083       .  S
C1427      C1428   1.410       .  A
C1428      F1429   1.357       .  S
C1433      C1434   1.403       .  A
C1433      C1438   1.401       .  A
C1433      H1440   1.083       .  S
C1434      C1435   1.408       .  A
C1435      C1436   1.402       .  A
C1435      F1442   1.357       .  S
C1436      C1437   1.403       .  A
C1436      H1441   1.083       .  S
C1437      C1438   1.407       .  A
C1438      F1439   1.357       .  S
C1443      C1444   1.403       .  A
C1443      C1448   1.397       .  A
C1443      H1450   1.083       .  S
C1444      C1445   1.407       .  A
C1445      C1446   1.400       .  A
C1445      F1452   1.357       .  S
C1446      C1447   1.402       .  A
C1446      H1451   1.083       .  S
C1447      C1448   1.405       .  A
C1448      F1449   1.358       .  S
C1453      C1454   1.408       .  A
C1453      C1458   1.401       .  A
C1453      H1460   1.082       .  S
C1454      C1455   1.406       .  A
C1455      C1456   1.401       .  A
C1455      F1462   1.357       .  S
C1456      C1457   1.407       .  A
C1456      H1461   1.084       .  S
C1457      C1458   1.406       .  A
C1458      F1459   1.357       .  S
C1463      C1464   1.405       .  A
C1463      C1468   1.400       .  A
C1463      H1470   1.084       .  S
C1464      C1465   1.406       .  A
C1465      C1466   1.403       .  A
C1465      F1472   1.357       .  S
C1466      C1467   1.406       .  A
C1466      H1471   1.083       .  S
C1467      C1468   1.405       .  A
C1468      F1469   1.357       .  S
C1473      C1474   1.404       .  A
C1473      C1478   1.397       .  A
C1473      H1480   1.082       .  S
C1474      C1475   1.407       .  A
C1475      C1476   1.400       .  A
C1475      F1482   1.357       .  S
C1476      C1477   1.403       .  A
C1476      H1481   1.083       .  S
C1477      C1478   1.406       .  A
C1478      F1479   1.357       .  S
C1483      C1484   1.403       .  A
C1483      C1488   1.398       .  A
C1483      H1490   1.083       .  S
C1484      C1485   1.406       .  A
C1485      C1486   1.399       .  A
C1485      F1492   1.357       .  S
C1486      C1487   1.406       .  A
C1486      H1491   1.082       .  S
C1487      C1488   1.408       .  A
C1488      F1489   1.357       .  S
C1493      C1494   1.404       .  A
C1493      C1498   1.401       .  A
C1493      H1500   1.082       .  S
C1494      C1495   1.409       .  A
C1495      C1496   1.402       .  A
C1495      F1502   1.357       .  S
C1496      C1497   1.403       .  A
C1496      H1501   1.082       .  S
C1497      C1498   1.407       .  A
C1498      F1499   1.357       .  S
C1503      C1504   1.406       .  A
C1503      C1508   1.411       .  A
C1503      H1510   1.082       .  S
C1504      C1505   1.405       .  A
C1505      C1506   1.393       .  A
C1505      F1512   1.358       .  S
C1506      C1507   1.407       .  A
C1506      H1511   1.080       .  S
C1507      C1508   1.413       .  A
C1508      F1509   1.356       .  S
C1513      C1514   1.399       .  A
C1513      C1518   1.395       .  A
C1513      H1520   1.084       .  S
C1514      C1515   1.406       .  A
C1515      C1516   1.407       .  A
C1515      F1522   1.357       .  S
C1516      C1517   1.408       .  A
C1516      H1521   1.082       .  S
C1517      C1518   1.410       .  A
C1518      F1519   1.357       .  S
C1523      C1524   1.403       .  A
C1523      C1528   1.401       .  A
C1523      H1530   1.083       .  S
C1524      C1525   1.408       .  A
C1525      C1526   1.397       .  A
C1525      F1532   1.357       .  S
C1526      C1527   1.403       .  A
C1526      H1531   1.082       .  S
C1527      C1528   1.408       .  A
C1528      F1529   1.357       .  S
C1533      C1534   1.403       .  A
C1533      C1538   1.403       .  A
C1533      H1540   1.082       .  S
C1534      C1535   1.409       .  A
C1535      C1536   1.401       .  A
C1535      F1542   1.358       .  S
C1536      C1537   1.403       .  A
C1536      H1541   1.082       .  S
C1537      C1538   1.410       .  A
C1538      F1539   1.357       .  S
C1543      C1544   1.406   1_655  A
C1543      C1548   1.403   1_655  A
C1543      H1550   1.084       .  S
C1544      C1545   1.404       .  A
C1545      C1546   1.400       .  A
C1545      F1552   1.357       .  S
C1546      C1547   1.409       .  A
C1546      H1551   1.083       .  S
C1547      C1548   1.408       .  A
C1548      F1549   1.356   1_455  S
C1553      C1554   1.405       .  A
C1553      C1558   1.393       .  A
C1553      H1560   1.083       .  S
C1554      C1555   1.410       .  A
C1555      C1556   1.409       .  A
C1555      F1562   1.357       .  S
C1556      C1557   1.406       .  A
C1556      H1561   1.083       .  S
C1557      C1558   1.404       .  A
C1558      F1559   1.358       .  S
C1563      C1564   1.409   1_455  A
C1563      C1568   1.404       .  A
C1563      H1570   1.083       .  S
C1564      C1565   1.407       .  A
C1565      C1566   1.402   1_655  A
C1565      F1572   1.357       .  S
C1566      C1567   1.406       .  A
C1566      H1571   1.084       .  S
C1567      C1568   1.404       .  A
C1568      F1569   1.357       .  S
C1573      C1574   1.406       .  A
C1573      C1578   1.400       .  A
C1573      H1580   1.082       .  S
C1574      C1575   1.409       .  A
C1575      C1576   1.394       .  A
C1575      F1582   1.356       .  S
C1576      C1577   1.402       .  A
C1576      H1581   1.083       .  S
C1577      C1578   1.406       .  A
C1578      F1579   1.357       .  S
C1583      C1584   1.406       .  A
C1583      C1588   1.403       .  A
C1583      H1590   1.084       .  S
C1584      C1585   1.405       .  A
C1585      C1586   1.399   1_554  A
C1585      F1592   1.357   1_554  S
C1586      C1587   1.407   1_556  A
C1586      H1591   1.083       .  S
C1587      C1588   1.407       .  A
C1588      F1589   1.357       .  S
C1593      C1594   1.406       .  A
C1593      C1598   1.403       .  A
C1593      H1600   1.083       .  S
C1594      C1595   1.406       .  A
C1595      C1596   1.402       .  A
C1595      F1602   1.357       .  S
C1596      C1597   1.405       .  A
C1596      H1601   1.084       .  S
C1597      C1598   1.406       .  A
C1598      F1599   1.357       .  S
C1603      C1604   1.406       .  A
C1603      C1608   1.402       .  A
C1603      H1610   1.083       .  S
C1604      C1605   1.405       .  A
C1605      C1606   1.403       .  A
C1605      F1612   1.357       .  S
C1606      C1607   1.408       .  A
C1606      H1611   1.083       .  S
C1607      C1608   1.407       .  A
C1608      F1609   1.357       .  S
C1613      C1614   1.404       .  A
C1613      C1618   1.398       .  A
C1613      H1620   1.081       .  S
C1614      C1615   1.405       .  A
C1615      C1616   1.399       .  A
C1615      F1622   1.357       .  S
C1616      C1617   1.404       .  A
C1616      H1621   1.083       .  S
C1617      C1618   1.408       .  A
C1618      F1619   1.357       .  S
C1623      C1624   1.403       .  A
C1623      C1628   1.401       .  A
C1623      H1630   1.083       .  S
C1624      C1625   1.410   1_554  A
C1625      C1626   1.404       .  A
C1625      F1632   1.357       .  S
C1626      C1627   1.404       .  A
C1626      H1631   1.082       .  S
C1627      C1628   1.408   1_556  A
C1628      F1629   1.357       .  S
C1633      C1634   1.405       .  A
C1633      C1638   1.402       .  A
C1633      H1640   1.083       .  S
C1634      C1635   1.405       .  A
C1635      C1636   1.395       .  A
C1635      F1642   1.357       .  S
C1636      C1637   1.404       .  A
C1636      H1641   1.084       .  S
C1637      C1638   1.409       .  A
C1638      F1639   1.357       .  S
C1643      C1644   1.404       .  A
C1643      C1648   1.403       .  A
C1643      H1650   1.082       .  S
C1644      C1645   1.409       .  A
C1645      C1646   1.401       .  A
C1645      F1652   1.357       .  S
C1646      C1647   1.402       .  A
C1646      H1651   1.082       .  S
C1647      C1648   1.408       .  A
C1648      F1649   1.357       .  S
C1653      C1654   1.408       .  A
C1653      C1658   1.402       .  A
C1653      H1660   1.083       .  S
C1654      C1655   1.405       .  A
C1655      C1656   1.402       .  A
C1655      F1662   1.357       .  S
C1656      C1657   1.406       .  A
C1656      H1661   1.084       .  S
C1657      C1658   1.405       .  A
C1658      F1659   1.357       .  S
C1663      C1664   1.403       .  A
C1663      C1668   1.402       .  A
C1663      H1670   1.082       .  S
C1664      C1665   1.408       .  A
C1665      C1666   1.402       .  A
C1665      F1672   1.357       .  S
C1666      C1667   1.404       .  A
C1666      H1671   1.083       .  S
C1667      C1668   1.410       .  A
C1668      F1669   1.357       .  S
C1673      C1674   1.407       .  A
C1673      C1678   1.402       .  A
C1673      H1680   1.083       .  S
C1674      C1675   1.405       .  A
C1675      C1676   1.403       .  A
C1675      F1682   1.357       .  S
C1676      C1677   1.407       .  A
C1676      H1681   1.084       .  S
C1677      C1678   1.405       .  A
C1678      F1679   1.357       .  S
C1683      C1684   1.403       .  A
C1683      C1688   1.396       .  A
C1683      H1690   1.083       .  S
C1684      C1685   1.407       .  A
C1685      C1686   1.403       .  A
C1685      F1692   1.357       .  S
C1686      C1687   1.406       .  A
C1686      H1691   1.082       .  S
C1687      C1688   1.407       .  A
C1688      F1689   1.357       .  S
C1693      C1694   1.405       .  A
C1693      C1698   1.411       .  A
C1693      H1700   1.082       .  S
C1694      C1695   1.403       .  A
C1695      C1696   1.396       .  A
C1695      F1702   1.358       .  S
C1696      C1697   1.407       .  A
C1696      H1701   1.082       .  S
C1697      C1698   1.415       .  A
C1698      F1699   1.356       .  S
C1703      C1704   1.404       .  A
C1703      C1708   1.401       .  A
C1703      H1710   1.082       .  S
C1704      C1705   1.408       .  A
C1705      C1706   1.402       .  A
C1705      F1712   1.357       .  S
C1706      C1707   1.404       .  A
C1706      H1711   1.082       .  S
C1707      C1708   1.408       .  A
C1708      F1709   1.357       .  S
C1713      C1714   1.403       .  A
C1713      C1718   1.400       .  A
C1713      H1720   1.083       .  S
C1714      C1715   1.408       .  A
C1715      C1716   1.401       .  A
C1715      F1722   1.357       .  S
C1716      C1717   1.406       .  A
C1716      H1721   1.082       .  S
C1717      C1718   1.410       .  A
C1718      F1719   1.357       .  S
C1723      C1724   1.405       .  A
C1723      C1728   1.409       .  A
C1723      H1730   1.083       .  S
C1724      C1725   1.402       .  A
C1725      C1726   1.395       .  A
C1725      F1732   1.358       .  S
C1726      C1727   1.409       .  A
C1726      H1731   1.080       .  S
C1727      C1728   1.413       .  A
C1728      F1729   1.356       .  S
C1733      C1734   1.405       .  A
C1733      C1738   1.401       .  A
C1733      H1740   1.084       .  S
C1734      C1735   1.406       .  A
C1735      C1736   1.404       .  A
C1735      F1742   1.357       .  S
C1736      C1737   1.406       .  A
C1736      H1741   1.083       .  S
C1737      C1738   1.406       .  A
C1738      F1739   1.357       .  S
C1743      C1744   1.406       .  A
C1743      C1748   1.395       .  A
C1743      H1750   1.081       .  S
C1744      C1745   1.410       .  A
C1745      C1746   1.403       .  A
C1745      F1752   1.356       .  S
C1746      C1747   1.402       .  A
C1746      H1751   1.083       .  S
C1747      C1748   1.403       .  A
C1748      F1749   1.358       .  S
C1753      C1754   1.408       .  A
C1753      C1758   1.403       .  A
C1753      H1760   1.083       .  S
C1754      C1755   1.406       .  A
C1755      C1756   1.401       .  A
C1755      F1762   1.357       .  S
C1756      C1757   1.407       .  A
C1756      H1761   1.084       .  S
C1757      C1758   1.406       .  A
C1758      F1759   1.357       .  S
C1763      C1764   1.402       .  A
C1763      C1768   1.402   1_556  A
C1763      H1770   1.082       .  S
C1764      C1765   1.409   1_556  A
C1765      C1766   1.401       .  A
C1765      F1772   1.358       .  S
C1766      C1767   1.403       .  A
C1766      H1771   1.083       .  S
C1767      C1768   1.410       .  A
C1768      F1769   1.357       .  S
C1773      C1774   1.403   1_554  A
C1773      C1778   1.402       .  A
C1773      H1780   1.083       .  S
C1774      C1775   1.408       .  A
C1775      C1776   1.402       .  A
C1775      F1782   1.357       .  S
C1776      C1777   1.403   1_556  A
C1776      H1781   1.083       .  S
C1777      C1778   1.409       .  A
C1778      F1779   1.358       .  S
C1783      C1784   1.403       .  A
C1783      C1788   1.399       .  A
C1783      H1790   1.083       .  S
C1784      C1785   1.405       .  A
C1785      C1786   1.398       .  A
C1785      F1792   1.357       .  S
C1786      C1787   1.405       .  A
C1786      H1791   1.082       .  S
C1787      C1788   1.407       .  A
C1788      F1789   1.357       .  S
C1793      C1794   1.404       .  A
C1793      C1798   1.404       .  A
C1793      H1800   1.084       .  S
C1794      C1795   1.402       .  A
C1795      C1796   1.401       .  A
C1795      F1802   1.358       .  S
C1796      C1797   1.408       .  A
C1796      H1801   1.083       .  S
C1797      C1798   1.409       .  A
C1798      F1799   1.357       .  S
C1803      C1804   1.408       .  A
C1803      C1808   1.402   1_545  A
C1803      H1810   1.083       .  S
C1804      C1805   1.406       .  A
C1805      C1806   1.401       .  A
C1805      F1812   1.357       .  S
C1806      C1807   1.406   1_545  A
C1806      H1811   1.083       .  S
C1807      C1808   1.404       .  A
C1808      F1809   1.357       .  S
C1813      C1814   1.403   1_545  A
C1813      C1818   1.401       .  A
C1813      H1820   1.082       .  S
C1814      C1815   1.410       .  A
C1815      C1816   1.404       .  A
C1815      F1822   1.357       .  S
C1816      C1817   1.403   1_565  A
C1816      H1821   1.083       .  S
C1817      C1818   1.409       .  A
C1818      F1819   1.357       .  S
C1823      C1824   1.407       .  A
C1823      C1828   1.396       .  A
C1823      H1830   1.083       .  S
C1824      C1825   1.411       .  A
C1825      C1826   1.411       .  A
C1825      F1832   1.356       .  S
C1826      C1827   1.406       .  A
C1826      H1831   1.084       .  S
C1827      C1828   1.404       .  A
C1828      F1829   1.358       .  S
C1833      C1834   1.404       .  A
C1833      C1838   1.396       .  A
C1833      H1840   1.082       .  S
C1834      C1835   1.407       .  A
C1835      C1836   1.400       .  A
C1835      F1842   1.357       .  S
C1836      C1837   1.403       .  A
C1836      H1841   1.083       .  S
C1837      C1838   1.404       .  A
C1838      F1839   1.358       .  S
C1843      C1844   1.406       .  A
C1843      C1848   1.403       .  A
C1843      H1850   1.084       .  S
C1844      C1845   1.406       .  A
C1845      C1846   1.401       .  A
C1845      F1852   1.357       .  S
C1846      C1847   1.407       .  A
C1846      H1851   1.084       .  S
C1847      C1848   1.408       .  A
C1848      F1849   1.357       .  S
C1853      C1854   1.404       .  A
C1853      C1858   1.401       .  A
C1853      H1860   1.083       .  S
C1854      C1855   1.406       .  A
C1855      C1856   1.397       .  A
C1855      F1862   1.357       .  S
C1856      C1857   1.405       .  A
C1856      H1861   1.083       .  S
C1857      C1858   1.409       .  A
C1858      F1859   1.357       .  S
C1863      C1864   1.404       .  A
C1863      C1868   1.401       .  A
C1863      H1870   1.084       .  S
C1864      C1865   1.405       .  A
C1865      C1866   1.403       .  A
C1865      F1872   1.357       .  S
C1866      C1867   1.406       .  A
C1866      H1871   1.083       .  S
C1867      C1868   1.405       .  A
C1868      F1869   1.357       .  S
