geometry optimzed in LAMMPS
_audit_creation_date              2020-11-30 
_audit_creation_method            'lammps2cif' 
_symmetry_space_group_name_H-M    'P1' 
_symmetry_Int_Tables_number       1 
_symmetry_cell_setting            triclinic 
loop_ 
_symmetry_equiv_pos_as_xyz 
  x,y,z 
_cell_length_a                    88.28361992028951 
_cell_length_b                    88.04915922409496 
_cell_length_c                    76.98961863618497 
_cell_angle_alpha                 90.18188224743045 
_cell_angle_beta                  89.9583951405746 
_cell_angle_gamma                 90.1037750349813 
loop_ 
_atom_site_label 
_atom_site_type_symbol 
_atom_site_fract_x 
_atom_site_fract_y 
_atom_site_fract_z 
_atom_site_charge 
N1          N  0.20849616  0.85459793  0.20580797    -0.27380
N2          N  0.20873449  0.84054663  0.21178362    -0.35240
C3          C  0.21810787  0.83980479  0.22542501     0.00960
C4          C  0.22410425  0.85406136  0.22828263     0.06980
C5          C  0.21792756  0.86321854  0.21551743    -0.06120
H6          H  0.22051230  0.82956970  0.23265291     0.07650
H7          H  0.21994925  0.87521775  0.21359883     0.08850
Cu8        Cu  0.19724130  0.82254232  0.20082928     0.44170
Cu9        Cu  0.19475949  0.86066809  0.18500947     0.41990
Cu10       Cu  0.17791856  0.82783465  0.16114697     0.43880
N11         N  0.18870780  0.80470920  0.18647592    -0.34770
N12         N  0.18183790  0.80639650  0.17139125    -0.29020
C13         C  0.17888714  0.79254579  0.16465885    -0.05130
C14         C  0.18441576  0.78168235  0.17602971     0.07090
C15         C  0.19038424  0.78987120  0.18979031     0.00890
H16         H  0.17369950  0.79054363  0.15213097     0.08540
H17         H  0.19591670  0.78542384  0.20122102     0.07620
N18         N  0.17358726  0.85059356  0.15606327    -0.36220
N19         N  0.17915443  0.86229453  0.16481932    -0.28400
C20         C  0.17260776  0.87509623  0.15899042    -0.03640
C21         C  0.16238091  0.87133258  0.14597719     0.04970
C22         C  0.16354663  0.85568266  0.14436290     0.03060
H23         H  0.17478110  0.88627995  0.16429297     0.08170
H24         H  0.15747110  0.84834773  0.13549779     0.07000
N25         N  0.20816187  0.64364177  0.20575756    -0.27380
N26         N  0.21239844  0.65798038  0.20710961    -0.35240
C27         C  0.22271765  0.65937792  0.21973239     0.00960
C28         C  0.22500473  0.64527907  0.22697799     0.06980
C29         C  0.21576345  0.63542854  0.21768672    -0.06120
H30         H  0.22791091  0.66999744  0.22361252     0.07650
H31         H  0.21430937  0.62337477  0.21980877     0.08850
Cu32       Cu  0.20304319  0.67543666  0.19323178     0.44170
Cu33       Cu  0.19171151  0.63718037  0.18785822     0.41990
Cu34       Cu  0.17547799  0.66900545  0.16093242     0.43880
N35         N  0.19230649  0.69280760  0.18056824    -0.34770
N36         N  0.18218181  0.69083760  0.16821034    -0.29020
C37         C  0.17769346  0.70459882  0.16250925    -0.05130
C38         C  0.18538342  0.71580322  0.17193810     0.07090
C39         C  0.19444587  0.70765841  0.18328705     0.00890
H40         H  0.16967731  0.70607460  0.15210412     0.08540
H41         H  0.20205343  0.71213393  0.19304936     0.07620
N42         N  0.17074977  0.64589827  0.15794461    -0.36220
N43         N  0.17609967  0.63477270  0.16776005    -0.28400
C44         C  0.17018419  0.62150488  0.16227196    -0.03640
C45         C  0.16093048  0.62435648  0.14821720     0.04970
C46         C  0.16146191  0.63989885  0.14587883     0.03060
H47         H  0.17258550  0.61055980  0.16798288     0.08170
H48         H  0.15539250  0.64639858  0.13623292     0.07000
N49         N  0.28725900  0.64317777  0.30089628    -0.27380
N50         N  0.28449565  0.65767549  0.29795062    -0.35240
C51         C  0.27389850  0.65891647  0.28563394     0.00960
C52         C  0.26966899  0.64452758  0.28039556     0.06980
C53         C  0.27828167  0.63472056  0.29045117    -0.06120
H54         H  0.26934080  0.66958038  0.28106005     0.07650
H55         H  0.27777273  0.62244368  0.29051337     0.08850
Cu56       Cu  0.29434094  0.67546566  0.31107069     0.44170
Cu57       Cu  0.30294948  0.63656174  0.31955459     0.41990
Cu58       Cu  0.32255160  0.66894568  0.34222219     0.43880
N59         N  0.30502134  0.69285900  0.32401853    -0.34770
N60         N  0.31599657  0.69074113  0.33535557    -0.29020
C61         C  0.32116704  0.70440122  0.34070212    -0.05130
C62         C  0.31273128  0.71559187  0.33248507     0.07090
C63         C  0.30272528  0.70776747  0.32192962     0.00890
H64         H  0.33053114  0.70603939  0.34957342     0.08540
H65         H  0.29451950  0.71258236  0.31309330     0.07620
N66         N  0.32585194  0.64599517  0.34714995    -0.36220
N67         N  0.31910046  0.63450539  0.33912943    -0.28400
C68         C  0.32458242  0.62139203  0.34548492    -0.03640
C69         C  0.33514178  0.62475662  0.35826344     0.04970
C70         C  0.33566284  0.64046037  0.35882509     0.03060
H71         H  0.32154544  0.61033436  0.34047548     0.08170
H72         H  0.34285035  0.64741998  0.36699682     0.07000
N73         N  0.28827620  0.85368352  0.29949430    -0.27380
N74         N  0.28399714  0.83941530  0.29728790    -0.35240
C75         C  0.27317527  0.83874580  0.28512059     0.00960
C76         C  0.27054192  0.85324597  0.27918078     0.06980
C77         C  0.28022168  0.86253821  0.28861428    -0.06120
H78         H  0.26748436  0.82844305  0.28103759     0.07650
H79         H  0.28106751  0.87478008  0.28793836     0.08850
Cu80       Cu  0.29272639  0.82121593  0.31064769     0.44170
Cu81       Cu  0.30440297  0.85980237  0.31796940     0.41990
Cu82       Cu  0.31992057  0.82746310  0.34348417     0.43880
N83         N  0.30355253  0.80372624  0.32319524    -0.34770
N84         N  0.31372981  0.80581070  0.33551720    -0.29020
C85         C  0.31913207  0.79218316  0.34046199    -0.05130
C86         C  0.31210003  0.78106375  0.33050899     0.07090
C87         C  0.30218563  0.78883930  0.31986670     0.00890
H88         H  0.32779490  0.79052689  0.35020181     0.08540
H89         H  0.29451903  0.78406846  0.31034195     0.07620
N90         N  0.32529410  0.85018670  0.34728291    -0.36220
N91         N  0.32009052  0.86172281  0.33807170    -0.28400
C92         C  0.32664858  0.87460462  0.34382210    -0.03640
C93         C  0.33652661  0.87102298  0.35719425     0.04970
C94         C  0.33518003  0.85544155  0.35910925     0.03060
H95         H  0.32457058  0.88573283  0.33841735     0.08170
H96         H  0.34087454  0.84832073  0.36845710     0.07000
N97         N  0.70851963  0.85407483  0.30017149    -0.27380
N98         N  0.71206639  0.83966366  0.29756431    -0.35240
C99         C  0.72335345  0.83878293  0.28596342     0.00960
C100        C  0.72712934  0.85330639  0.28091620     0.06980
C101        C  0.71744889  0.86280232  0.29002428    -0.06120
H102        H  0.72847272  0.82830540  0.28153476     0.07650
H103        H  0.71715661  0.87507752  0.28961855     0.08850
Cu104      Cu  0.70172655  0.82151393  0.30957175     0.44170
Cu105      Cu  0.69225212  0.86057918  0.31833479     0.41990
Cu106      Cu  0.67429786  0.82839257  0.34198611     0.43880
N107        N  0.69046992  0.80422157  0.32213489    -0.34770
N108        N  0.68018701  0.80655753  0.33429725    -0.29020
C109        C  0.67531206  0.79301268  0.34024579    -0.05130
C110        C  0.68286655  0.78166439  0.33118667     0.07090
C111        C  0.69246017  0.78924158  0.31995646     0.00890
H112        H  0.66723291  0.79154274  0.35068189     0.08540
H113        H  0.70051478  0.78421540  0.31104312     0.07620
N114        N  0.67047862  0.85128107  0.34698481    -0.36220
N115        N  0.67666093  0.86281588  0.33853526    -0.28400
C116        C  0.67116145  0.87588768  0.34512608    -0.03640
C117        C  0.66119196  0.87242215  0.35846816     0.04970
C118        C  0.66098052  0.85672434  0.35911854     0.03060
H119        H  0.67394825  0.88706906  0.34027586     0.08170
H120        H  0.65424023  0.84971503  0.36768531     0.07000
N121        N  0.70897310  0.64407778  0.30102962    -0.27380
N122        N  0.71138614  0.65852740  0.29733275    -0.35240
C123        C  0.72097595  0.65952022  0.28389854     0.00960
C124        C  0.72482164  0.64501390  0.27877019     0.06980
C125        C  0.71718106  0.63541676  0.29001581    -0.06120
H126        H  0.72481136  0.67006498  0.27819158     0.07650
H127        H  0.71728674  0.62313166  0.28993029     0.08850
Cu128      Cu  0.70162204  0.67654024  0.31020659     0.44170
Cu129      Cu  0.69389357  0.63758519  0.32042758     0.41990
Cu130      Cu  0.67530416  0.66975632  0.34386629     0.43880
N131        N  0.69144826  0.69383871  0.32391712    -0.34770
N132        N  0.68142977  0.69158753  0.33638554    -0.29020
C133        C  0.67706745  0.70517834  0.34278306    -0.05130
C134        C  0.68501847  0.71640466  0.33404259     0.07090
C135        C  0.69386726  0.70878021  0.32206855     0.00890
H136        H  0.66901063  0.70675262  0.35322541     0.08540
H137        H  0.70157595  0.71373740  0.31272975     0.07620
N138        N  0.67152372  0.64679974  0.34857371    -0.36220
N139        N  0.67789198  0.63534044  0.34014869    -0.28400
C140        C  0.67209206  0.62221433  0.34616267    -0.03640
C141        C  0.66170934  0.62550869  0.35918232     0.04970
C142        C  0.66166532  0.64122664  0.36021853     0.03060
H143        H  0.67481772  0.61123676  0.34075198     0.08170
H144        H  0.65476750  0.64818521  0.36869609     0.07000
N145        N  0.78688546  0.85397376  0.20456257    -0.27380
N146        N  0.78588444  0.83971521  0.20976168    -0.35240
C147        C  0.77605013  0.83879000  0.22297364     0.00960
C148        C  0.77042135  0.85310507  0.22628032     0.06980
C149        C  0.77759964  0.86256233  0.21446281    -0.06120
H150        H  0.77326681  0.82842322  0.22978995     0.07650
H151        H  0.77640723  0.87474907  0.21338775     0.08850
Cu152      Cu  0.79764052  0.82180896  0.19904348     0.44170
Cu153      Cu  0.80151596  0.86048732  0.18468573     0.41990
Cu154      Cu  0.82331088  0.82854944  0.16497815     0.43880
N155        N  0.80811754  0.80447340  0.18567695    -0.34770
N156        N  0.81752424  0.80674158  0.17263114    -0.29020
C157        C  0.82140047  0.79319887  0.16573258    -0.05130
C158        C  0.81406009  0.78185781  0.17505470     0.07090
C159        C  0.80576065  0.78953856  0.18755860     0.00890
H160        H  0.82840558  0.79189985  0.15432584     0.08540
H161        H  0.79822671  0.78463533  0.19711878     0.07620
N162        N  0.82654054  0.85142068  0.15966805    -0.36220
N163        N  0.81852469  0.86280912  0.16608380    -0.28400
C164        C  0.82359170  0.87587799  0.15912110    -0.03640
C165        C  0.83556546  0.87264231  0.14794516     0.04970
C166        C  0.83699074  0.85696286  0.14873052     0.03060
H167        H  0.81864291  0.88681923  0.16192971     0.08170
H168        H  0.84511160  0.84994011  0.14194258     0.07000
N169        N  0.78900758  0.64381904  0.20749029    -0.27380
N170        N  0.78678267  0.65822359  0.21158726    -0.35240
C171        C  0.77616824  0.65916619  0.22397495     0.00960
C172        C  0.77150750  0.64466711  0.22808341     0.06980
C173        C  0.77978794  0.63512869  0.21732346    -0.06120
H174        H  0.77179512  0.66969658  0.22922801     0.07650
H175        H  0.77879321  0.62291254  0.21627930     0.08850
Cu176      Cu  0.79706582  0.67625538  0.19940390     0.44170
Cu177      Cu  0.80395566  0.63756066  0.18786071     0.41990
Cu178      Cu  0.82207107  0.66995147  0.16426224     0.43880
N179        N  0.80630850  0.69368114  0.18516209    -0.34770
N180        N  0.81564971  0.69163435  0.17198073    -0.29020
C181        C  0.81928711  0.70530287  0.16528454    -0.05130
C182        C  0.81160916  0.71639199  0.17463589     0.07090
C183        C  0.80364741  0.70855024  0.18722463     0.00890
H184        H  0.82671567  0.70701873  0.15428005     0.08540
H185        H  0.79651015  0.71326460  0.19730392     0.07620
N186        N  0.82632640  0.64704591  0.15980808    -0.36220
N187        N  0.81991632  0.63552763  0.16808533    -0.28400
C188        C  0.82569126  0.62244553  0.16189667    -0.03640
C189        C  0.83636324  0.62590367  0.14933699     0.04970
C190        C  0.83630658  0.64155815  0.14820835     0.03060
H191        H  0.82241363  0.61125032  0.16629023     0.08170
H192        H  0.84320373  0.64849141  0.13972392     0.07000
N193        N  0.89407861  0.03842628  0.95499200    -0.27380
N194        N  0.90811416  0.03325902  0.95465445    -0.35240
C195        C  0.90969808  0.02245051  0.96667097     0.00960
C196        C  0.89606289  0.02061830  0.97519598     0.06980
C197        C  0.88631144  0.03093760  0.96744807    -0.06120
H198        H  0.92034642  0.01705265  0.96982518     0.07650
H199        H  0.87484488  0.03358224  0.97135057     0.08850
Cu200      Cu  0.92570908  0.04276579  0.94091520     0.44170
Cu201      Cu  0.88739802  0.05640259  0.93924044     0.41990
Cu202      Cu  0.91941632  0.07463759  0.91505603     0.43880
N203        N  0.94327123  0.05539155  0.93088429    -0.34770
N204        N  0.94115894  0.06761116  0.92133231    -0.29020
C205        C  0.95477297  0.07347493  0.91702440    -0.05130
C206        C  0.96592324  0.06449594  0.92446842     0.07090
C207        C  0.95816216  0.05309316  0.93300367     0.00890
H208        H  0.95643236  0.08329296  0.90882107     0.08540
H209        H  0.96300708  0.04373848  0.94017720     0.07620
N210        N  0.89650778  0.07866786  0.91097351    -0.36220
N211        N  0.88513648  0.07275049  0.91988055    -0.28400
C212        C  0.87203861  0.07829007  0.91361244    -0.03640
C213        C  0.87520336  0.08798172  0.89980210     0.04970
C214        C  0.89091888  0.08786125  0.89869974     0.03060
H215        H  0.86112543  0.07541226  0.91900430     0.08170
H216        H  0.89797631  0.09386543  0.88952513     0.07000
N217        N  0.10300574  0.03817777  0.95510668    -0.27380
N218        N  0.08880533  0.03347595  0.95581648    -0.35240
C219        C  0.08745828  0.02289059  0.96816277     0.00960
C220        C  0.10145502  0.02070138  0.97574969     0.06980
C221        C  0.11110222  0.03069689  0.96723725    -0.06120
H222        H  0.07683974  0.01774723  0.97202420     0.07650
H223        H  0.12287319  0.03292416  0.97021939     0.08850
Cu224      Cu  0.07111238  0.04309498  0.94235428     0.44170
Cu225      Cu  0.10962915  0.05538647  0.93825871     0.41990
Cu226      Cu  0.07748682  0.07658683  0.91834286     0.43880
N227        N  0.05374234  0.05539686  0.93143421    -0.34770
N228        N  0.05584097  0.06814870  0.92278703    -0.29020
C229        C  0.04226480  0.07345540  0.91757530    -0.05130
C230        C  0.03118551  0.06335341  0.92306215     0.07090
C231        C  0.03889819  0.05219151  0.93200778     0.00890
H232        H  0.04060546  0.08371594  0.91012709     0.08540
H233        H  0.03406377  0.04246196  0.93854652     0.07620
N234        N  0.10032885  0.08037638  0.91333420    -0.36220
N235        N  0.11176603  0.07261092  0.91994013    -0.28400
C236        C  0.12473764  0.07744651  0.91258456    -0.03640
C237        C  0.12138792  0.08894914  0.90089110     0.04970
C238        C  0.10576321  0.09040873  0.90180230     0.03060
H239        H  0.13568194  0.07250389  0.91524281     0.08170
H240        H  0.09871839  0.09810723  0.89447189     0.07000
N241        N  0.89463619  0.96201289  0.05332215    -0.27380
N242        N  0.90929349  0.96389837  0.05084530    -0.35240
C243        C  0.91164231  0.97431498  0.03858545     0.00960
C244        C  0.89780657  0.97980863  0.03316448     0.06980
C245        C  0.88714539  0.97152903  0.04258154    -0.06120
H246        H  0.92275747  0.97752353  0.03396813     0.07650
H247        H  0.87495129  0.97254210  0.04189331     0.08850
Cu248      Cu  0.92596040  0.95320870  0.06443736     0.44170
Cu249      Cu  0.88715406  0.94617873  0.07156867     0.41990
Cu250      Cu  0.91930984  0.92368525  0.09279608     0.43880
N251        N  0.94329353  0.94214983  0.07645676    -0.34770
N252        N  0.94127191  0.93048607  0.08687290    -0.29020
C253        C  0.95497301  0.92487313  0.09124407    -0.05130
C254        C  0.96600466  0.93346627  0.08287038     0.07090
C255        C  0.95809040  0.94445477  0.07391536     0.00890
H256        H  0.95675016  0.91499853  0.09930992     0.08540
H257        H  0.96267162  0.95332991  0.06576411     0.07620
N258        N  0.89613743  0.92070296  0.09665986    -0.36220
N259        N  0.88491748  0.92867584  0.08972317    -0.28400
C260        C  0.87165659  0.92326390  0.09581267    -0.03640
C261        C  0.87469636  0.91129959  0.10681976     0.04970
C262        C  0.89025024  0.91002477  0.10711362     0.03060
H263        H  0.86061551  0.92751263  0.09218713     0.08170
H264        H  0.89683784  0.90186722  0.11436828     0.07000
N265        N  0.10312173  0.96087360  0.05236162    -0.27380
N266        N  0.08852969  0.96272442  0.04932920    -0.35240
C267        C  0.08656553  0.97366299  0.03756357     0.00960
C268        C  0.10056668  0.97932330  0.03294094     0.06980
C269        C  0.11093154  0.97078325  0.04237143    -0.06120
H270        H  0.07562875  0.97721461  0.03274041     0.07650
H271        H  0.12313342  0.97192539  0.04226370     0.08850
Cu272      Cu  0.07139660  0.95128921  0.06154584     0.44170
Cu273      Cu  0.11040447  0.94503497  0.07070911     0.41990
Cu274      Cu  0.07813489  0.92462669  0.09362045     0.43880
N275        N  0.05408666  0.94051120  0.07421677    -0.34770
N276        N  0.05622641  0.93018974  0.08630298    -0.29020
C277        C  0.04260822  0.92501057  0.09166502    -0.05130
C278        C  0.03141292  0.93260112  0.08239432     0.07090
C279        C  0.03924744  0.94234803  0.07153893     0.00890
H280        H  0.04105481  0.91617984  0.10123172     0.08540
H281        H  0.03454243  0.95025476  0.06227732     0.07620
N282        N  0.10115305  0.92172995  0.09815882    -0.36220
N283        N  0.11255733  0.92864649  0.09019780    -0.28400
C284        C  0.12567673  0.92319389  0.09658323    -0.03640
C285        C  0.12236724  0.91251256  0.10923866     0.04970
C286        C  0.10673878  0.91185656  0.10973268     0.03060
H287        H  0.13679705  0.92648454  0.09201682     0.08170
H288        H  0.09985472  0.90454160  0.11780198     0.07000
N289        N  0.60195165  0.95841502  0.45629044    -0.27380
N290        N  0.58767588  0.95846222  0.46144791    -0.35240
C291        C  0.58571584  0.96922457  0.47353742     0.00960
C292        C  0.59934933  0.97654772  0.47617527     0.06980
C293        C  0.60954125  0.96926207  0.46521492    -0.06120
H294        H  0.57496564  0.97179650  0.47961734     0.07650
H295        H  0.62136350  0.97206520  0.46333737     0.08850
Cu296      Cu  0.57050876  0.94595747  0.45044681     0.44170
Cu297      Cu  0.60918715  0.94420422  0.43616791     0.41990
Cu298      Cu  0.57694690  0.92792899  0.41055350     0.43880
N299        N  0.55308148  0.93812470  0.43518494    -0.34770
N300        N  0.55521982  0.93167886  0.41989114    -0.29020
C301        C  0.54162136  0.92889991  0.41256593    -0.05130
C302        C  0.53051025  0.93417348  0.42378536     0.07090
C303        C  0.53819921  0.93975907  0.43805218     0.00890
H304        H  0.53996182  0.92382900  0.39989090     0.08540
H305        H  0.53337708  0.94478857  0.44963290     0.07620
N306        N  0.59975271  0.92356416  0.40625215    -0.36220
N307        N  0.61125793  0.92890442  0.41547521    -0.28400
C308        C  0.62411436  0.92236500  0.40971375    -0.03640
C309        C  0.62053398  0.91235873  0.39635210     0.04970
C310        C  0.60499837  0.91365824  0.39441821     0.03060
H311        H  0.63519296  0.92435565  0.41527689     0.08170
H312        H  0.59785295  0.90771976  0.38523664     0.07000
N313        N  0.39366167  0.95888684  0.45544985    -0.27380
N314        N  0.40800846  0.96000926  0.46016548    -0.35240
C315        C  0.40933174  0.97047642  0.47272405     0.00960
C316        C  0.39515967  0.97627781  0.47629711     0.06980
C317        C  0.38541804  0.96876088  0.46500696    -0.06120
H318        H  0.41996056  0.97396826  0.47849475     0.07650
H319        H  0.37339491  0.97067774  0.46345447     0.08850
Cu320      Cu  0.42572723  0.94869507  0.44854043     0.44170
Cu321      Cu  0.38688399  0.94433759  0.43551337     0.41990
Cu322      Cu  0.41883844  0.92573279  0.41188985     0.43880
N323        N  0.44294812  0.93897366  0.43432746    -0.34770
N324        N  0.44060499  0.93039288  0.42050894    -0.29020
C325        C  0.45409184  0.92645089  0.41363486    -0.05130
C326        C  0.46541605  0.93295445  0.42371765     0.07090
C327        C  0.45788147  0.94084866  0.43663223     0.00890
H328        H  0.45545700  0.91995482  0.40180247     0.08540
H329        H  0.46289987  0.94772015  0.44679411     0.07620
N330        N  0.39599056  0.92234170  0.40684307    -0.36220
N331        N  0.38455990  0.92872304  0.41526439    -0.28400
C332        C  0.37147523  0.92296168  0.40909486    -0.03640
C333        C  0.37481963  0.91257396  0.39606536     0.04970
C334        C  0.39046769  0.91247916  0.39512124     0.03060
H335        H  0.36047930  0.92559105  0.41445771     0.08170
H336        H  0.39740429  0.90543154  0.38678018     0.07000
N337        N  0.60246995  0.03878567  0.55095930    -0.27380
N338        N  0.58860308  0.03315100  0.55158143    -0.35240
C339        C  0.58718163  0.02217433  0.53962789     0.00960
C340        C  0.60077747  0.02066734  0.53091620     0.06980
C341        C  0.61026063  0.03149525  0.53834793    -0.06120
H342        H  0.57672422  0.01620862  0.53686897     0.07650
H343        H  0.62168855  0.03430868  0.53440798     0.08850
Cu344      Cu  0.57115062  0.04192135  0.56624293     0.44170
Cu345      Cu  0.60915324  0.05655687  0.56717813     0.41990
Cu346      Cu  0.57756694  0.07471455  0.59156902     0.43880
N347        N  0.55373472  0.05445447  0.57679949    -0.34770
N348        N  0.55591463  0.06708586  0.58574394    -0.29020
C349        C  0.54234620  0.07307128  0.58992218    -0.05130
C350        C  0.53119486  0.06367354  0.58316252     0.07090
C351        C  0.53881697  0.05194922  0.57508018     0.00890
H352        H  0.54072172  0.08334522  0.59743370     0.08540
H353        H  0.53387700  0.04238319  0.56827003     0.07620
N354        N  0.60044410  0.07864951  0.59593755    -0.36220
N355        N  0.61174443  0.07253498  0.58700754    -0.28400
C356        C  0.62494461  0.07767048  0.59354719    -0.03640
C357        C  0.62177495  0.08718730  0.60739198     0.04970
C358        C  0.60617314  0.08764922  0.60845138     0.03060
H359        H  0.63602985  0.07449200  0.58878267     0.08170
H360        H  0.59946121  0.09409863  0.61762672     0.07000
N361        N  0.39454825  0.03776003  0.55142138    -0.27380
N362        N  0.40876809  0.03311320  0.55062772    -0.35240
C363        C  0.41027311  0.02308478  0.53763590     0.00960
C364        C  0.39643730  0.02140867  0.52956676     0.06980
C365        C  0.38658531  0.03067755  0.53878429    -0.06120
H366        H  0.42080833  0.01760480  0.53415158     0.07650
H367        H  0.37469265  0.03250174  0.53615654     0.08850
Cu368      Cu  0.42641491  0.04159046  0.56524133     0.44170
Cu369      Cu  0.38749112  0.05426078  0.56918632     0.41990
Cu370      Cu  0.41981582  0.07477202  0.58923494     0.43880
N371        N  0.44379031  0.05395442  0.57622235    -0.34770
N372        N  0.44151342  0.06686703  0.58456268    -0.29020
C373        C  0.45499212  0.07270161  0.58939440    -0.05130
C374        C  0.46619006  0.06277777  0.58396781     0.07090
C375        C  0.45870192  0.05108230  0.57558684     0.00890
H376        H  0.45650064  0.08318997  0.59654732     0.08540
H377        H  0.46373812  0.04129469  0.56933149     0.07620
N378        N  0.39717952  0.07853412  0.59489060    -0.36220
N379        N  0.38552985  0.07118826  0.58812799    -0.28400
C380        C  0.37275305  0.07645833  0.59554526    -0.03640
C381        C  0.37643492  0.08770564  0.60767847     0.04970
C382        C  0.39216258  0.08860471  0.60663584     0.03060
H383        H  0.36159840  0.07236595  0.59213770     0.08170
H384        H  0.39982174  0.09588832  0.61364134     0.07000
N385        N  0.70661000  0.14413272  0.70788779    -0.27380
N386        N  0.71078725  0.15841906  0.71021892    -0.35240
C387        C  0.72177312  0.15902552  0.72222343     0.00960
C388        C  0.72458301  0.14446292  0.72791438     0.06980
C389        C  0.71485851  0.13522199  0.71849750    -0.06120
H390        H  0.72741827  0.16932454  0.72640018     0.07650
H391        H  0.71407730  0.12296998  0.71903510     0.08850
Cu392      Cu  0.70172576  0.17663993  0.69702341     0.44170
Cu393      Cu  0.69037437  0.13791863  0.68962568     0.41990
Cu394      Cu  0.67327654  0.16981797  0.66523758     0.43880
N395        N  0.69134002  0.19384504  0.68334459    -0.34770
N396        N  0.68058142  0.19152680  0.67172071    -0.29020
C397        C  0.67617055  0.20503103  0.66527022    -0.05130
C398        C  0.68481858  0.21629940  0.67305322     0.07090
C399        C  0.69415512  0.20878700  0.68458061     0.00890
H400        H  0.66750988  0.20651471  0.65549077     0.08540
H401        H  0.70238220  0.21382997  0.69327948     0.07620
N402        N  0.66904978  0.14695796  0.66053263    -0.36220
N403        N  0.67494783  0.13552212  0.66936935    -0.28400
C404        C  0.66974834  0.12236951  0.66266994    -0.03640
C405        C  0.66038149  0.12569066  0.64880713     0.04970
C406        C  0.66007445  0.14136182  0.64794606     0.03060
H407        H  0.67274163  0.11120838  0.66738230     0.08170
H408        H  0.65374083  0.14821221  0.63885598     0.07000
N409        N  0.70918972  0.35389070  0.70541036    -0.27380
N410        N  0.71242963  0.33944874  0.70811772    -0.35240
C411        C  0.72288016  0.33841473  0.72066013     0.00960
C412        C  0.72658240  0.35288366  0.72614450     0.06980
C413        C  0.71760519  0.36249701  0.71629864    -0.06120
H414        H  0.72706798  0.32783623  0.72590291     0.07650
H415        H  0.71678892  0.37471490  0.71747145     0.08850
Cu416      Cu  0.70181444  0.32146892  0.69599588     0.44170
Cu417      Cu  0.69271402  0.36033747  0.68754459     0.41990
Cu418      Cu  0.67385295  0.32826330  0.66407428     0.43880
N419        N  0.69020654  0.30419688  0.68373189    -0.34770
N420        N  0.67977750  0.30646387  0.67174718    -0.29020
C421        C  0.67476835  0.29287573  0.66597509    -0.05130
C422        C  0.68237553  0.28158694  0.67498776     0.07090
C423        C  0.69214078  0.28923489  0.68598328     0.00890
H424        H  0.66656577  0.29133322  0.65568287     0.08540
H425        H  0.70029791  0.28426311  0.69476344     0.07620
N426        N  0.67012831  0.35121878  0.65947771    -0.36220
N427        N  0.67649887  0.36263782  0.66805511    -0.28400
C428        C  0.67111762  0.37581067  0.66173758    -0.03640
C429        C  0.66114977  0.37251625  0.64840801     0.04970
C430        C  0.66069938  0.35686064  0.64741709     0.03060
H431        H  0.67436618  0.38696456  0.66636311     0.08170
H432        H  0.65391232  0.35005296  0.63865000     0.07000
N433        N  0.78696374  0.35464378  0.80175115    -0.27380
N434        N  0.78278159  0.34027268  0.80046230    -0.35240
C435        C  0.77140935  0.33900649  0.78907454     0.00960
C436        C  0.76792551  0.35328397  0.78297152     0.06980
C437        C  0.77818492  0.36299450  0.79103762    -0.06120
H438        H  0.76595221  0.32841066  0.78559889     0.07650
H439        H  0.77897141  0.37518111  0.78952955     0.08850
Cu440      Cu  0.79210229  0.32263020  0.81412657     0.44170
Cu441      Cu  0.80411680  0.36121985  0.81891181     0.41990
Cu442      Cu  0.82232424  0.32821637  0.84223696     0.43880
N443        N  0.80307824  0.30485545  0.82579517    -0.34770
N444        N  0.81502550  0.30655200  0.83581366    -0.29020
C445        C  0.82054547  0.29271482  0.83981335    -0.05130
C446        C  0.81143838  0.28171497  0.83190006     0.07090
C447        C  0.80042671  0.29007214  0.82330715     0.00890
H448        H  0.83069481  0.29106038  0.84734191     0.08540
H449        H  0.79119363  0.28582071  0.81545118     0.07620
N450        N  0.82671100  0.35107608  0.84650481    -0.36220
N451        N  0.82073239  0.36279221  0.83821342    -0.28400
C452        C  0.82704213  0.37565040  0.84446150    -0.03640
C453        C  0.83753055  0.37181074  0.85709994     0.04970
C454        C  0.83674304  0.35617636  0.85822478     0.03060
H455        H  0.82436612  0.38695473  0.83994573     0.08170
H456        H  0.84274122  0.34888840  0.86711588     0.07000
N457        N  0.78614044  0.14141298  0.80183053    -0.27380
N458        N  0.78573982  0.15552066  0.79611838    -0.35240
C459        C  0.77649691  0.15640454  0.78240469     0.00960
C460        C  0.77074576  0.14213733  0.77912532     0.06980
C461        C  0.77692339  0.13281951  0.79179158    -0.06120
H462        H  0.77408743  0.16673161  0.77534993     0.07650
H463        H  0.77509242  0.12075174  0.79336874     0.08850
Cu464      Cu  0.79727399  0.17319288  0.80725728     0.44170
Cu465      Cu  0.80022514  0.13579877  0.82256656     0.41990
Cu466      Cu  0.81982254  0.16945756  0.84426211     0.43880
N467        N  0.80613575  0.19151662  0.82009558    -0.34770
N468        N  0.81417802  0.19069628  0.83441743    -0.29020
C469        C  0.81734681  0.20495854  0.83979033    -0.05130
C470        C  0.81088988  0.21529978  0.82815798     0.07090
C471        C  0.80401794  0.20602015  0.81579309     0.00890
H472        H  0.82387721  0.20752287  0.85130177     0.08540
H473        H  0.79782836  0.20900924  0.80430081     0.07620
N474        N  0.82417532  0.14651690  0.84867765    -0.36220
N475        N  0.81723213  0.13473542  0.84137610    -0.28400
C476        C  0.82365344  0.12185389  0.84719934    -0.03640
C477        C  0.83528583  0.12569774  0.85839312     0.04970
C478        C  0.83518867  0.14137220  0.85915083     0.03060
H479        H  0.82039800  0.11053252  0.84315099     0.08170
H480        H  0.84273335  0.14855362  0.86661835     0.07000
N481        N  0.60308056  0.53808394  0.45570730    -0.27380
N482        N  0.58868522  0.53668569  0.46012372    -0.35240
C483        C  0.58724206  0.52591372  0.47222213     0.00960
C484        C  0.60133480  0.51986428  0.47546255     0.06980
C485        C  0.61125404  0.52801326  0.46501180    -0.06120
H486        H  0.57659550  0.52264822  0.47809701     0.07650
H487        H  0.62336654  0.52644434  0.46390382     0.08850
Cu488      Cu  0.57099776  0.54796310  0.44873651     0.44170
Cu489      Cu  0.60982710  0.55345497  0.43657593     0.41990
Cu490      Cu  0.57718666  0.57171348  0.41321857     0.43880
N491        N  0.55347224  0.55785216  0.43547425    -0.34770
N492        N  0.55549335  0.56682704  0.42199394    -0.29020
C493        C  0.54184746  0.57156265  0.41633589    -0.05130
C494        C  0.53081699  0.56532330  0.42702288     0.07090
C495        C  0.53863586  0.55648867  0.43877833     0.00890
H496        H  0.54009252  0.57910977  0.40546325     0.08540
H497        H  0.53395768  0.54928886  0.44879031     0.07620
N498        N  0.60001283  0.57598089  0.40877982    -0.36220
N499        N  0.61162204  0.56985847  0.41708876    -0.28400
C500        C  0.62451119  0.57620747  0.41112711    -0.03640
C501        C  0.62085310  0.58689512  0.39860183     0.04970
C502        C  0.60522379  0.58622724  0.39736586     0.03060
H503        H  0.63570900  0.57347232  0.41586424     0.08170
H504        H  0.59801762  0.59267050  0.38877550     0.07000
N505        N  0.39359197  0.53947724  0.45637776    -0.27380
N506        N  0.40779584  0.53934561  0.46175119    -0.35240
C507        C  0.40923603  0.52938316  0.47472476     0.00960
C508        C  0.39531771  0.52273323  0.47781578     0.06980
C509        C  0.38559830  0.52932867  0.46581638    -0.06120
H510        H  0.41988897  0.52654039  0.48084247     0.07650
H511        H  0.37384873  0.52644405  0.46353565     0.08850
Cu512      Cu  0.42550293  0.55036979  0.44975335     0.44170
Cu513      Cu  0.38682450  0.55309182  0.43569879     0.41990
Cu514      Cu  0.41916330  0.56956500  0.41060679     0.43880
N515        N  0.44295845  0.55874362  0.43481925    -0.34770
N516        N  0.44082654  0.56577528  0.41993020    -0.29020
C517        C  0.45438149  0.56991935  0.41338946    -0.05130
C518        C  0.46557523  0.56509242  0.42477489     0.07090
C519        C  0.45782769  0.55810248  0.43819311     0.00890
H520        H  0.45581443  0.57641569  0.40162449     0.08540
H521        H  0.46266451  0.55292762  0.44964370     0.07620
N522        N  0.39642979  0.57412657  0.40642670    -0.36220
N523        N  0.38488500  0.56868422  0.41547259    -0.28400
C524        C  0.37207184  0.57536420  0.40989979    -0.03640
C525        C  0.37572457  0.58555917  0.39682738     0.04970
C526        C  0.39125712  0.58423261  0.39486848     0.03060
H527        H  0.36096918  0.57327160  0.41535215     0.08170
H528        H  0.39844611  0.59020657  0.38579619     0.07000
N529        N  0.60382683  0.45912654  0.55099696    -0.27380
N530        N  0.58952638  0.46325203  0.54935726    -0.35240
C531        C  0.58837843  0.47374198  0.53688886     0.00960
C532        C  0.60263603  0.47654091  0.53029136     0.06980
C533        C  0.61224311  0.46699741  0.53944035    -0.06120
H534        H  0.57781515  0.47863305  0.53251935     0.07650
H535        H  0.62427940  0.46550648  0.53743654     0.08850
Cu536      Cu  0.57175141  0.45376330  0.56276173     0.44170
Cu537      Cu  0.61012696  0.44242128  0.56866328     0.41990
Cu538      Cu  0.57789693  0.42427564  0.59282673     0.43880
N539        N  0.55430706  0.44286378  0.57530515    -0.34770
N540        N  0.55626941  0.43162510  0.58636684    -0.29020
C541        C  0.54258795  0.42697506  0.59211116    -0.05130
C542        C  0.53159439  0.43596072  0.58439199     0.07090
C543        C  0.53948767  0.44576839  0.57370553     0.00890
H544        H  0.54079656  0.41797283  0.60142389     0.08540
H545        H  0.53482127  0.45433221  0.56521423     0.07620
N546        N  0.60080806  0.42031994  0.59720508    -0.36220
N547        N  0.61221736  0.42647556  0.58848590    -0.28400
C548        C  0.62533339  0.42117298  0.59497136    -0.03640
C549        C  0.62203919  0.41149105  0.60856591     0.04970
C550        C  0.60641539  0.41110346  0.60950773     0.03060
H551        H  0.63646280  0.42429841  0.59028313     0.08170
H552        H  0.59960093  0.40451998  0.61843234     0.07000
N553        N  0.39458695  0.46012345  0.55161785    -0.27380
N554        N  0.40907040  0.46363179  0.55003144    -0.35240
C555        C  0.41087789  0.47353451  0.53707372     0.00960
C556        C  0.39691542  0.47638676  0.52977116     0.06980
C557        C  0.38670725  0.46787302  0.53948444    -0.06120
H558        H  0.42170543  0.47813289  0.53309594     0.07650
H559        H  0.37460544  0.46700122  0.53751397     0.08850
Cu560      Cu  0.42643622  0.45406737  0.56383492     0.44170
Cu561      Cu  0.38743656  0.44422667  0.56997603     0.41990
Cu562      Cu  0.41956173  0.42668176  0.59529369     0.43880
N563        N  0.44372893  0.44270774  0.57587639    -0.34770
N564        N  0.44145798  0.43238517  0.58796279    -0.29020
C565        C  0.45500236  0.42721265  0.59345610    -0.05130
C566        C  0.46626363  0.43458096  0.58405678     0.07090
C567        C  0.45862031  0.44438348  0.57317305     0.00890
H568        H  0.45653242  0.41899574  0.60372153     0.08540
H569        H  0.46354993  0.45232615  0.56407174     0.07620
N570        N  0.39663905  0.42214495  0.59857348    -0.36220
N571        N  0.38526110  0.42800484  0.58960924    -0.28400
C572        C  0.37225220  0.42154372  0.59504024    -0.03640
C573        C  0.37559997  0.41104537  0.60786666     0.04970
C574        C  0.39114871  0.41194907  0.60987321     0.03060
H575        H  0.36120099  0.42404185  0.58971446     0.08170
H576        H  0.39810482  0.40565887  0.61887736     0.07000
N577        N  0.89403922  0.45975879  0.95587128    -0.27380
N578        N  0.90850373  0.46293243  0.95835601    -0.35240
C579        C  0.90979747  0.47405461  0.97011705     0.00960
C580        C  0.89549242  0.47826110  0.97547207     0.06980
C581        C  0.88566194  0.46892990  0.96618446    -0.06120
H582        H  0.92046848  0.47882245  0.97441111     0.07650
H583        H  0.87342202  0.46909819  0.96641237     0.08850
Cu584      Cu  0.92633113  0.45272555  0.94582205     0.44170
Cu585      Cu  0.88731783  0.44348863  0.93769578     0.41990
Cu586      Cu  0.91997794  0.42509572  0.91424784     0.43880
N587        N  0.94384189  0.44132885  0.93407369    -0.34770
N588        N  0.94173671  0.43063109  0.92230779    -0.29020
C589        C  0.95533771  0.42502545  0.91756506    -0.05130
C590        C  0.96644949  0.43251523  0.92708434     0.07090
C591        C  0.95869016  0.44296566  0.93713695     0.00890
H592        H  0.95701569  0.41612234  0.90804407     0.08540
H593        H  0.96339411  0.45147688  0.94572102     0.07620
N594        N  0.89712002  0.42163660  0.90910717    -0.36220
N595        N  0.88551077  0.42769094  0.91752621    -0.28400
C596        C  0.87257180  0.42202995  0.91083234    -0.03640
C597        C  0.87616813  0.41204536  0.89743921     0.04970
C598        C  0.89185852  0.41217770  0.89682675     0.03060
H599        H  0.86143698  0.42471471  0.91579379     0.08170
H600        H  0.89907944  0.40576093  0.88816089     0.07000
N601        N  0.10300032  0.45848127  0.95572254    -0.27380
N602        N  0.08874582  0.46294862  0.95664099    -0.35240
C603        C  0.08734344  0.47346234  0.96913417     0.00960
C604        C  0.10138202  0.47591611  0.97648694     0.06980
C605        C  0.11111649  0.46614509  0.96776744    -0.06120
H606        H  0.07673142  0.47859035  0.97301435     0.07650
H607        H  0.12301667  0.46435573  0.97038733     0.08850
Cu608      Cu  0.07124363  0.45370371  0.94247044     0.44170
Cu609      Cu  0.10972839  0.44156395  0.93841989     0.41990
Cu610      Cu  0.07815791  0.42389396  0.91287450     0.43880
N611        N  0.05405308  0.44204185  0.93025476    -0.34770
N612        N  0.05634211  0.43080729  0.91918390    -0.29020
C613        C  0.04281537  0.42497771  0.91442764    -0.05130
C614        C  0.03155525  0.43302082  0.92304089     0.07090
C615        C  0.03915260  0.44367079  0.93297257     0.00890
H616        H  0.04138212  0.41520976  0.90604097     0.08540
H617        H  0.03420742  0.45179128  0.94189221     0.07620
N618        N  0.10109128  0.41922350  0.90979316    -0.36220
N619        N  0.11229850  0.42519632  0.91903018    -0.28400
C620        C  0.12549870  0.41925858  0.91348381    -0.03640
C621        C  0.12242228  0.40911064  0.90019926     0.04970
C622        C  0.10690564  0.40947421  0.89810641     0.03060
H623        H  0.13652255  0.42222156  0.91861963     0.08170
H624        H  0.10029144  0.40302527  0.88882673     0.07000
N625        N  0.89452081  0.53808984  0.05229140    -0.27380
N626        N  0.90858088  0.53295914  0.05212049    -0.35240
C627        C  0.91006055  0.52262710  0.03942903     0.00960
C628        C  0.89634384  0.52123509  0.03101329     0.06980
C629        C  0.88662580  0.53106255  0.03958319    -0.06120
H630        H  0.92053601  0.51691484  0.03619908     0.07650
H631        H  0.87493298  0.53339323  0.03637446     0.08850
Cu632      Cu  0.92594987  0.54135638  0.06724747     0.44170
Cu633      Cu  0.88764933  0.55516223  0.06925926     0.41990
Cu634      Cu  0.91896081  0.57263568  0.09481028     0.43880
N635        N  0.94309919  0.55313510  0.07949677    -0.34770
N636        N  0.94072094  0.56503481  0.08959426    -0.29020
C637        C  0.95419388  0.57106144  0.09417568    -0.05130
C638        C  0.96553985  0.56238195  0.08662744     0.07090
C639        C  0.95804667  0.55123018  0.07731428     0.00890
H640        H  0.95560558  0.58136293  0.10170345     0.08540
H641        H  0.96309255  0.54275054  0.06892372     0.07620
N642        N  0.89613206  0.57772406  0.09754248    -0.36220
N643        N  0.88493358  0.57177294  0.08829061    -0.28400
C644        C  0.87175075  0.57786889  0.09366522    -0.03640
C645        C  0.87485868  0.58808873  0.10686722     0.04970
C646        C  0.89035194  0.58761415  0.10907781     0.03060
H647        H  0.86072488  0.57492518  0.08852120     0.08170
H648        H  0.89696684  0.59402768  0.11838882     0.07000
N649        N  0.10173380  0.53782847  0.05110584    -0.27380
N650        N  0.08742137  0.53710649  0.04618701    -0.35240
C651        C  0.08578027  0.52618462  0.03420210     0.00960
C652        C  0.09965848  0.51940513  0.03153727     0.06980
C653        C  0.10965790  0.52722808  0.04223186    -0.06120
H654        H  0.07517178  0.52338422  0.02793373     0.07650
H655        H  0.12165128  0.52512391  0.04375564     0.08850
Cu656      Cu  0.07016705  0.54974048  0.05677575     0.44170
Cu657      Cu  0.10871478  0.55302095  0.07033763     0.41990
Cu658      Cu  0.07692749  0.57329368  0.09298026     0.43880
N659        N  0.05297367  0.56025875  0.07017039    -0.34770
N660        N  0.05516889  0.56888698  0.08397671    -0.29020
C661        C  0.04158447  0.57333835  0.09018383    -0.05130
C662        C  0.03036778  0.56728795  0.07954575     0.07090
C663        C  0.03809100  0.55894036  0.06714258     0.00890
H664        H  0.03999192  0.58036380  0.10159026     0.08540
H665        H  0.03327997  0.55191952  0.05699195     0.07620
N666        N  0.09988107  0.57600741  0.09826796    -0.36220
N667        N  0.11118119  0.56902618  0.09020025    -0.28400
C668        C  0.12437814  0.57398351  0.09693230    -0.03640
C669        C  0.12123226  0.58434250  0.10999485     0.04970
C670        C  0.10562445  0.58547424  0.11031283     0.03060
H671        H  0.13545634  0.57030721  0.09263895     0.08170
H672        H  0.09891333  0.59283577  0.11854161     0.07000
N673        N  0.28617761  0.14331812  0.70414327    -0.27380
N674        N  0.28434771  0.15766415  0.70879093    -0.35240
C675        C  0.27436292  0.15846285  0.72187908     0.00960
C676        C  0.26953766  0.14396017  0.72563252     0.06980
C677        C  0.27725606  0.13453921  0.71422969    -0.06120
H678        H  0.27084120  0.16887369  0.72818796     0.07650
H679        H  0.27654853  0.12229072  0.71343175     0.08850
Cu680      Cu  0.29498580  0.17580906  0.69718495     0.44170
Cu681      Cu  0.30107986  0.13702404  0.68442210     0.41990
Cu682      Cu  0.32051263  0.16940580  0.66259159     0.43880
N683        N  0.30488020  0.19323943  0.68348714    -0.34770
N684        N  0.31449707  0.19112886  0.67057922    -0.29020
C685        C  0.31852743  0.20477655  0.66412366    -0.05130
C686        C  0.31080775  0.21592361  0.67332001     0.07090
C687        C  0.30240705  0.20814432  0.68558202     0.00890
H688        H  0.32618827  0.20643960  0.65331948     0.08540
H689        H  0.29502615  0.21293916  0.69538086     0.07620
N690        N  0.32405706  0.14654846  0.65711927    -0.36220
N691        N  0.31718087  0.13495845  0.66474410    -0.28400
C692        C  0.32278341  0.12191800  0.65818524    -0.03640
C693        C  0.33355227  0.12548711  0.64575304     0.04970
C694        C  0.33414833  0.14116877  0.64559316     0.03060
H695        H  0.31962968  0.11068568  0.66257134     0.08170
H696        H  0.34165321  0.14818313  0.63790800     0.07000
N697        N  0.28930168  0.35380970  0.70650609    -0.27380
N698        N  0.28686063  0.33937411  0.71025989    -0.35240
C699        C  0.27640255  0.33840862  0.72283114     0.00960
C700        C  0.27211502  0.35291275  0.72741885     0.06980
C701        C  0.28042825  0.36248805  0.71678661    -0.06120
H702        H  0.27206535  0.32787857  0.72808701     0.07650
H703        H  0.27980443  0.37474702  0.71626875     0.08850
Cu704      Cu  0.29715304  0.32134607  0.69794701     0.44170
Cu705      Cu  0.30406018  0.36026559  0.68676989     0.41990
Cu706      Cu  0.32029761  0.32804040  0.66131410     0.43880
N707        N  0.30702764  0.30404008  0.68394354    -0.34770
N708        N  0.31542639  0.30625169  0.66999298    -0.29020
C709        C  0.31944270  0.29263701  0.66337349    -0.05130
C710        C  0.31338880  0.28137511  0.67391583     0.07090
C711        C  0.30550074  0.28909555  0.68669260     0.00890
H712        H  0.32590605  0.29106579  0.65156125     0.08540
H713        H  0.29882819  0.28417987  0.69705165     0.07620
N714        N  0.32435756  0.35094231  0.65666994    -0.36220
N715        N  0.31877648  0.36242522  0.66577103    -0.28400
C716        C  0.32460176  0.37548689  0.65962531    -0.03640
C717        C  0.33421709  0.37211603  0.64589872     0.04970
C718        C  0.33380328  0.35643370  0.64452958     0.03060
H719        H  0.32256836  0.38645361  0.66547462     0.08170
H720        H  0.34021571  0.34944580  0.63559065     0.07000
N721        N  0.20871613  0.14361136  0.80052108    -0.27380
N722        N  0.21261666  0.15795166  0.79808449    -0.35240
C723        C  0.22349943  0.15867228  0.78596367     0.00960
C724        C  0.22658657  0.14411703  0.78040155     0.06980
C725        C  0.21700193  0.13477015  0.78978917    -0.06120
H726        H  0.22877713  0.16905459  0.78150609     0.07650
H727        H  0.21626777  0.12251932  0.78907722     0.08850
Cu728      Cu  0.20308273  0.17615383  0.81091919     0.44170
Cu729      Cu  0.19255541  0.13733355  0.81883151     0.41990
Cu730      Cu  0.17309826  0.16956278  0.84062418     0.43880
N731        N  0.19220612  0.19344401  0.82398699    -0.34770
N732        N  0.18083187  0.19123056  0.83483687    -0.29020
C733        C  0.17626525  0.20477261  0.84114166    -0.05130
C734        C  0.18545634  0.21593447  0.83407298     0.07090
C735        C  0.19528111  0.20834185  0.82311213     0.00890
H736        H  0.16714941  0.20634721  0.85036760     0.08540
H737        H  0.20402964  0.21329681  0.81506117     0.07620
N738        N  0.16893468  0.14674206  0.84543136    -0.36220
N739        N  0.17605040  0.13518194  0.83799516    -0.28400
C740        C  0.17062176  0.12211997  0.84462973    -0.03640
C741        C  0.15954727  0.12569332  0.85663457     0.04970
C742        C  0.15875747  0.14133127  0.85683324     0.03060
H743        H  0.17428883  0.11088276  0.84078976     0.08170
H744        H  0.15130995  0.14828199  0.86468172     0.07000
N745        N  0.21123099  0.35338781  0.80233675    -0.27380
N746        N  0.21388067  0.33895026  0.79868891    -0.35240
C747        C  0.22367715  0.33804870  0.78542548     0.00960
C748        C  0.22745112  0.35258843  0.78044001     0.06980
C749        C  0.21947600  0.36211933  0.79146951    -0.06120
H750        H  0.22758613  0.32755000  0.77963240     0.07650
H751        H  0.21930131  0.37440127  0.79125472     0.08850
Cu752      Cu  0.20382307  0.32080661  0.81102063     0.44170
Cu753      Cu  0.19559584  0.35991926  0.82118020     0.41990
Cu754      Cu  0.17570789  0.32785405  0.84272901     0.43880
N755        N  0.19243289  0.30360507  0.82359093    -0.34770
N756        N  0.18181794  0.30603408  0.83535283    -0.29020
C757        C  0.17664076  0.29254769  0.84111051    -0.05130
C758        C  0.18436386  0.28115158  0.83236336     0.07090
C759        C  0.19437559  0.28860317  0.82152759     0.00890
H760        H  0.16815254  0.29114704  0.85112369     0.08540
H761        H  0.20256883  0.28347952  0.81285761     0.07620
N762        N  0.17164030  0.35070558  0.84745912    -0.36220
N763        N  0.17860463  0.36222146  0.83979691    -0.28400
C764        C  0.17277931  0.37531568  0.84592861    -0.03640
C765        C  0.16158130  0.37183078  0.85787609     0.04970
C766        C  0.16130741  0.35617272  0.85864670     0.03060
H767        H  0.17644036  0.38652661  0.84200667     0.08170
H768        H  0.15399976  0.34922907  0.86665705     0.07000
C769        C  0.17094165  0.23999956  0.83402209    -0.26410
C770        C  0.18477111  0.23254158  0.83672482    -0.14480
C771        C  0.19799717  0.24125216  0.83983766     0.36150
C772        C  0.19726691  0.25707165  0.83860099    -0.25860
C773        C  0.18363088  0.26455439  0.83499088    -0.15100
C774        C  0.17017989  0.25590232  0.83290733     0.37230
N775        N  0.15579028  0.26261928  0.82875034    -0.89350
H776        H  0.16078079  0.23337704  0.83166491     0.18340
H777        H  0.20754873  0.26363121  0.84047394     0.18330
N778        N  0.21232509  0.23452456  0.84429296    -0.88380
H779        H  0.15248029  0.25844310  0.81660001     0.35710
H780        H  0.15654077  0.27436011  0.82740743     0.40810
H781        H  0.21127804  0.22290079  0.84654619     0.40430
H782        H  0.21569434  0.23914452  0.85621189     0.35320
C783        C  0.24539923  0.35167429  0.73610628    -0.26410
C784        C  0.26010078  0.35663595  0.73999996    -0.14480
C785        C  0.26328427  0.36254769  0.75673474     0.36150
C786        C  0.25183013  0.36248852  0.76940211    -0.25860
C787        C  0.23745384  0.35646343  0.76579426    -0.15100
C788        C  0.23398700  0.35163617  0.74870726     0.37230
N789        N  0.21923079  0.34610732  0.74383867    -0.89350
H790        H  0.24292179  0.34715404  0.72329838     0.18340
H791        H  0.25451645  0.36615081  0.78250119     0.18330
N792        N  0.27809503  0.36784377  0.76166238    -0.88380
H793        H  0.21521605  0.35308724  0.73389697     0.35710
H794        H  0.21145817  0.34723217  0.75397444     0.40810
H795        H  0.28569841  0.36748379  0.75130030     0.40430
H796        H  0.28226111  0.36046567  0.77113443     0.35320
C797        C  0.26384778  0.14203346  0.75674326    -0.26410
C798        C  0.25888467  0.13999406  0.73961383    -0.14480
C799        C  0.24337797  0.13701157  0.73635810     0.36150
C800        C  0.23314938  0.13695172  0.75032055    -0.25860
C801        C  0.23802041  0.14003583  0.76729985    -0.15100
C802        C  0.25364830  0.14201715  0.77065612     0.37230
N803        N  0.25948968  0.14470213  0.78784035    -0.89350
H804        H  0.27570254  0.14441489  0.75925564     0.18340
H805        H  0.22116048  0.13554189  0.74771990     0.18330
N806        N  0.23747741  0.13484150  0.71911865    -0.88380
H807        H  0.26705140  0.13591930  0.79064135     0.35710
H808        H  0.25098618  0.14402437  0.79722770     0.40810
H809        H  0.24603396  0.13492665  0.70977191     0.40430
H810        H  0.23035887  0.14400681  0.71638938     0.35320
C811        C  0.32524498  0.23989139  0.66816498    -0.26410
C812        C  0.31131500  0.23260952  0.67101455    -0.14480
C813        C  0.29810383  0.24143033  0.67296195     0.36150
C814        C  0.29925019  0.25729693  0.67317780    -0.25860
C815        C  0.31327168  0.26467531  0.67142565    -0.15100
C816        C  0.32650215  0.25581620  0.66867617     0.37230
N817        N  0.34141331  0.26232180  0.66726692    -0.89350
H818        H  0.33541508  0.23314469  0.66660884     0.18340
H819        H  0.28907931  0.26400023  0.67497648     0.18330
N820        N  0.28354568  0.23424517  0.67474797    -0.88380
H821        H  0.34792304  0.25803261  0.67747158     0.35710
H822        H  0.34131332  0.27404259  0.66901546     0.40810
H823        H  0.28130592  0.22842745  0.66316976     0.40430
H824        H  0.27499188  0.24235064  0.67619522     0.35320
C825        C  0.00718154  0.56811934  0.09817462    -0.26410
C826        C  0.01367643  0.56821271  0.08151430    -0.14480
C827        C  0.00411531  0.56802923  0.06682094     0.36150
C828        C  0.98843281  0.56655917  0.06908229    -0.25860
C829        C  0.98196143  0.56559108  0.08567502    -0.15100
C830        C  0.99144648  0.56666929  0.10049198     0.37230
N831        N  0.98574979  0.56566062  0.11796269    -0.89350
H832        H  0.01442967  0.56835357  0.10952470     0.18340
H833        H  0.98116343  0.56601554  0.05775324     0.18330
N834        N  0.01034804  0.56933254  0.04962791    -0.88380
H835        H  0.99047656  0.55598624  0.12361978     0.35710
H836        H  0.97406019  0.56406653  0.11827129     0.40810
H837        H  0.01536544  0.58006235  0.04866421     0.40430
H838        H  0.00178696  0.56890827  0.04026037     0.35320
C839        C  0.13343292  0.40225551  0.87179229    -0.26410
C840        C  0.13324582  0.40011063  0.88983266    -0.14480
C841        C  0.14279018  0.38899628  0.89728299     0.36150
C842        C  0.15211417  0.38028839  0.88643199    -0.25860
C843        C  0.15218921  0.38228608  0.86835363    -0.15100
C844        C  0.14266764  0.39345810  0.86089759     0.37230
N845        N  0.14156094  0.39589548  0.84246607    -0.89350
H846        H  0.12606143  0.41069370  0.86604059     0.18340
H847        H  0.15922001  0.37162951  0.89219357     0.18330
N848        N  0.14282011  0.38560315  0.91554423    -0.88380
H849        H  0.13036266  0.39368769  0.83881572     0.35710
H850        H  0.14816393  0.38827458  0.83541424     0.40810
H851        H  0.13475155  0.39183787  0.92238835     0.40430
H852        H  0.15343671  0.38864744  0.92046768     0.35320
C853        C  0.09464701  0.48290161  0.00636093    -0.26410
C854        C  0.10409646  0.48544047  0.99201273    -0.14480
C855        C  0.11399665  0.49815344  0.99213841     0.36150
C856        C  0.11317836  0.50858709  0.00598298    -0.25860
C857        C  0.10263974  0.50669279  0.01945951    -0.15100
C858        C  0.09380323  0.49330904  0.01999789     0.37230
N859        N  0.08388336  0.48993157  0.03422467    -0.89350
H860        H  0.08728275  0.47303206  0.00658634     0.18340
H861        H  0.12009891  0.51876128  0.00558842     0.18330
N862        N  0.12415372  0.50150380  0.97805515    -0.88380
H863        H  0.07518872  0.49792014  0.03471256     0.35710
H864        H  0.09011073  0.49052655  0.04575143     0.40810
H865        H  0.12347326  0.49343881  0.96815882     0.40430
H866        H  0.13518943  0.50100722  0.98293665     0.35320
C867        C  0.90143395  0.50379865  0.98664536    -0.26410
C868        C  0.89244380  0.49069201  0.98797461    -0.14480
C869        C  0.88284386  0.48897734  0.00257107     0.36150
C870        C  0.88342707  0.49973440  0.01606791    -0.25860
C871        C  0.89353256  0.51203766  0.01531972    -0.15100
C872        C  0.90215428  0.51437563  0.00011335     0.37230
N873        N  0.91186303  0.52731013  0.99803557    -0.89350
H874        H  0.90859746  0.50545846  0.97536233     0.18340
H875        H  0.87667224  0.49795619  0.02764736     0.18330
N876        N  0.87316743  0.47603925  0.00457677    -0.88380
H877        H  0.92047999  0.52692323  0.00729125     0.35710
H878        H  0.90545111  0.53712996  0.00005296     0.40810
H879        H  0.87976016  0.46620833  0.00383960     0.40430
H880        H  0.86536020  0.47596343  0.99439229     0.35000
C881        C  0.99016818  0.42986542  0.90980029    -0.26410
C882        C  0.98308912  0.43057510  0.92613514    -0.14480
C883        C  0.99215755  0.43001765  0.94128206     0.36150
C884        C  0.00790843  0.43001064  0.93977233    -0.25860
C885        C  0.01501491  0.43035455  0.92349355    -0.15100
C886        C  0.00601429  0.42978838  0.90832624     0.37230
N887        N  0.01258758  0.42993106  0.89132295    -0.89350
H888        H  0.98336318  0.43004266  0.89809244     0.18340
H889        H  0.01469585  0.43006126  0.95150417     0.18330
N890        N  0.98579045  0.42901077  0.95836758    -0.88380
H891        H  0.01923272  0.42021073  0.88985837     0.35710
H892        H  0.01953613  0.43950781  0.89023384     0.40810
H893        H  0.97804026  0.42002268  0.95862524     0.40430
H894        H  0.98024771  0.43910761  0.96142702     0.35320
C895        C  0.35010040  0.40581690  0.62055920    -0.26410
C896        C  0.36492907  0.40085593  0.61719177    -0.14480
C897        C  0.36935542  0.38625504  0.62283582     0.36150
C898        C  0.35912236  0.37732033  0.63232903    -0.25860
C899        C  0.34444981  0.38244500  0.63616901    -0.15100
C900        C  0.33988187  0.39686494  0.63000203     0.37230
N901        N  0.32489203  0.40261140  0.63265066    -0.89350
H902        H  0.34647501  0.41689399  0.61612080     0.18340
H903        H  0.36267678  0.36622973  0.63679514     0.18330
N904        N  0.38406762  0.38033662  0.61857358    -0.88380
H905        H  0.32331207  0.40475740  0.64585399     0.35710
H906        H  0.31706812  0.39445996  0.62846806     0.40810
H907        H  0.38457149  0.37910007  0.60507447     0.40430
H908        H  0.38554347  0.36949571  0.62380498     0.35320
C909        C  0.50744090  0.42132656  0.58687247    -0.26410
C910        C  0.51494089  0.43539172  0.58658561    -0.14480
C911        C  0.50637306  0.44888616  0.58705614     0.36150
C912        C  0.49054058  0.44804129  0.58682501    -0.25860
C913        C  0.48293639  0.43404326  0.58613800    -0.15100
C914        C  0.49153664  0.42041781  0.58625640     0.37230
N915        N  0.48478174  0.40557976  0.58485928    -0.89350
H916        H  0.51399645  0.41093523  0.58648398     0.18340
H917        H  0.48404017  0.45847337  0.58698444     0.18330
N918        N  0.51378117  0.46343629  0.58775806    -0.88380
H919        H  0.48898871  0.40049346  0.57355538     0.35710
H920        H  0.47310587  0.40614115  0.58315566     0.40810
H921        H  0.51962455  0.46407177  0.59954473     0.40430
H922        H  0.50584576  0.47223794  0.58786987     0.35320
C923        C  0.40392974  0.49793394  0.48827843    -0.26410
C924        C  0.39298058  0.50943158  0.48927181    -0.14480
C925        C  0.38168624  0.50861601  0.50239240     0.36150
C926        C  0.38238589  0.49687214  0.51475119    -0.25860
C927        C  0.39425490  0.48628764  0.51456782    -0.15100
C928        C  0.40470481  0.48641468  0.50070117     0.37230
N929        N  0.41632635  0.47502572  0.49950893    -0.89350
H930        H  0.41235323  0.49827075  0.47803272     0.18340
H931        H  0.37423119  0.49669303  0.52527747     0.18330
N932        N  0.36992160  0.51977587  0.50426934    -0.88380
H933        H  0.42323009  0.47686503  0.48867392     0.35710
H934        H  0.41097622  0.46455432  0.49758350     0.40810
H935        H  0.37069222  0.52823928  0.49490383     0.40430
H936        H  0.37145971  0.52516869  0.51625873     0.35320
C937        C  0.61438085  0.50958829  0.50155361    -0.26410
C938        C  0.60445707  0.50727051  0.48755878    -0.14480
C939        C  0.59619336  0.49353789  0.48651843     0.36150
C940        C  0.59693705  0.48316870  0.50011553    -0.25860
C941        C  0.60569845  0.48608689  0.51493359    -0.15100
C942        C  0.61508230  0.49918297  0.51536743     0.37230
N943        N  0.62455230  0.50290833  0.52995668    -0.89350
H944        H  0.62085463  0.52003852  0.50234982     0.18340
H945        H  0.58996962  0.47302459  0.49948464     0.18330
N946        N  0.58693065  0.48977301  0.47183124    -0.88380
H947        H  0.63577141  0.50290526  0.52559747     0.35710
H948        H  0.62385810  0.49475836  0.53970538     0.40810
H949        H  0.59351210  0.49068751  0.46058909     0.40430
H950        H  0.57789096  0.49734177  0.47104431     0.35320
C951        C  0.50684542  0.56470469  0.41005264    -0.26410
C952        C  0.51420031  0.56712310  0.42598236    -0.14480
C953        C  0.50544582  0.57061956  0.44084780     0.36150
C954        C  0.48968204  0.57066101  0.43971928    -0.25860
C955        C  0.48222136  0.56729841  0.42408496    -0.15100
C956        C  0.49097963  0.56469882  0.40894149     0.37230
N957        N  0.48419688  0.56127561  0.39250510    -0.89350
H958        H  0.51345459  0.56218521  0.39853186     0.18340
H959        H  0.48317060  0.57305809  0.45134915     0.18330
N960        N  0.51217989  0.57453998  0.45719253    -0.88380
H961        H  0.47799004  0.57069527  0.38845190     0.35710
H962        H  0.47690810  0.55200001  0.39398987     0.40810
H963        H  0.51995460  0.58333816  0.45522183     0.40430
H964        H  0.51780687  0.56512795  0.46220794     0.35320
C965        C  0.84153435  0.39572347  0.87387214    -0.26410
C966        C  0.84750914  0.38215335  0.86714576    -0.14480
C967        C  0.86302903  0.37893968  0.86977611     0.36150
C968        C  0.87190871  0.38884042  0.87961453    -0.25860
C969        C  0.86594376  0.40223055  0.88682692    -0.15100
C970        C  0.85058849  0.40587320  0.88356977     0.37230
N971        N  0.84428312  0.41992397  0.88973410    -0.89350
H972        H  0.82973178  0.39840350  0.87156912     0.18340
H973        H  0.88363274  0.38580535  0.88172816     0.18330
N974        N  0.87038926  0.36611523  0.86200422    -0.88380
H975        H  0.83285116  0.42076374  0.88633431     0.35710
H976        H  0.84989820  0.42874583  0.88332495     0.40810
H977        H  0.86805126  0.36596955  0.84869446     0.40430
H978        H  0.86642830  0.35616263  0.86772777     0.35320
C979        C  0.80597237  0.25744799  0.81690226    -0.26410
C980        C  0.81288543  0.26478831  0.83101306    -0.14480
C981        C  0.81965888  0.25564941  0.84397676     0.36150
C982        C  0.81891921  0.23973179  0.84265771    -0.25860
C983        C  0.81132892  0.23239120  0.82885322    -0.15100
C984        C  0.80451670  0.24164876  0.81595992     0.37230
N985        N  0.79554817  0.23530090  0.80218950    -0.89350
H986        H  0.80112357  0.26409046  0.80652286     0.18340
H987        H  0.82424727  0.23314092  0.85277167     0.18330
N988        N  0.82715498  0.26198954  0.85878819    -0.88380
H989        H  0.79260168  0.24352038  0.79302553     0.35710
H990        H  0.78535708  0.23168794  0.80776623     0.40810
H991        H  0.81978632  0.26947351  0.86509755     0.40430
H992        H  0.83680930  0.26776546  0.85457968     0.35320
C993        C  0.64213693  0.39298846  0.64667735    -0.26410
C994        C  0.65223569  0.38332193  0.63798820    -0.14480
C995        C  0.65312687  0.38381388  0.61962138     0.36150
C996        C  0.64337151  0.39345040  0.61047711    -0.25860
C997        C  0.63283885  0.40267201  0.61913145    -0.15100
C998        C  0.63244819  0.40267998  0.63753307     0.37230
N999        N  0.62278958  0.41260226  0.64742025    -0.89350
H1000       H  0.64160611  0.39284214  0.66074637     0.18340
H1001       H  0.64382930  0.39350478  0.59640416     0.18330
N1002       N  0.66374276  0.37484499  0.60980007    -0.88380
H1003       H  0.61450528  0.40590980  0.65338821     0.35710
H1004       H  0.61728160  0.42051947  0.63962706     0.40810
H1005       H  0.67096868  0.36869118  0.61782614     0.40430
H1006       H  0.67070408  0.38235143  0.60294386     0.35320
C1007       C  0.73193865  0.34926069  0.75708519    -0.26410
C1008       C  0.73598507  0.35637866  0.74151375    -0.14480
C1009       C  0.74968361  0.36477803  0.74070878     0.36150
C1010       C  0.75942409  0.36482936  0.75517654    -0.25860
C1011       C  0.75583049  0.35663984  0.77025773    -0.15100
C1012       C  0.74144593  0.34957041  0.77156770     0.37230
N1013       N  0.73623332  0.34230074  0.78720280    -0.89350
H1014       H  0.72133877  0.34305556  0.75789620     0.18340
H1015       H  0.77034744  0.37039427  0.75414457     0.18330
N1016       N  0.75450542  0.37261689  0.72530294    -0.88380
H1017       H  0.72586133  0.34722686  0.79055221     0.35710
H1018       H  0.74334211  0.34474015  0.79766338     0.40810
H1019       H  0.74654578  0.37174349  0.71535794     0.40430
H1020       H  0.76435214  0.36732015  0.72080331     0.35320
C1021       C  0.75153402  0.14363399  0.73563052    -0.26410
C1022       C  0.73658210  0.14015844  0.74025561    -0.14480
C1023       C  0.73344696  0.13478604  0.75721820     0.36150
C1024       C  0.74529435  0.13393030  0.76935978    -0.25860
C1025       C  0.76003433  0.13853122  0.76501437    -0.15100
C1026       C  0.76332972  0.14270916  0.74767755     0.37230
N1027       N  0.77837473  0.14662025  0.74199834    -0.89350
H1028       H  0.75399966  0.14764982  0.72262826     0.18340
H1029       H  0.74271630  0.13079566  0.78264386     0.18330
N1030       N  0.71839253  0.13100374  0.76292288    -0.88380
H1031       H  0.78121809  0.13922338  0.73186174     0.35710
H1032       H  0.78637575  0.14462804  0.75169145     0.40810
H1033       H  0.71046854  0.13207624  0.75297382     0.40430
H1034       H  0.71533414  0.13881411  0.77255925     0.35320
C1035       C  0.69608442  0.25769916  0.66989071    -0.26410
C1036       C  0.68209246  0.26494263  0.67225236    -0.14480
C1037       C  0.66871149  0.25601310  0.67303880     0.36150
C1038       C  0.66987641  0.24011801  0.67193143    -0.25860
C1039       C  0.68400244  0.23291978  0.67052080    -0.15100
C1040       C  0.69722492  0.24189734  0.66867913     0.37230
N1041       N  0.71196245  0.23547176  0.66551862    -0.89350
H1042       H  0.70634391  0.26444028  0.66896379     0.18340
H1043       H  0.65971004  0.23329872  0.67328431     0.18330
N1044       N  0.65393170  0.26242580  0.67587194    -0.88380
H1045       H  0.71610376  0.24021826  0.65401824     0.35710
H1046       H  0.71131123  0.22384870  0.66300643     0.40810
H1047       H  0.65435432  0.27416293  0.67747050     0.40430
H1048       H  0.64980612  0.25811121  0.68760005     0.35320
C1049       C  0.35000473  0.09370302  0.61773593    -0.26410
C1050       C  0.36565694  0.09692073  0.61861598    -0.14480
C1051       C  0.37039800  0.10917855  0.62940351     0.36150
C1052       C  0.35953587  0.11819053  0.63784719    -0.25860
C1053       C  0.34403152  0.11512925  0.63653119    -0.15100
C1054       C  0.33916826  0.10261631  0.62638659     0.37230
N1055       N  0.32343895  0.09882309  0.62400390    -0.89350
H1056       H  0.34590262  0.08431499  0.60997939     0.18340
H1057       H  0.36325402  0.12760981  0.64589494     0.18330
N1058       N  0.38613495  0.11249358  0.63213605    -0.88380
H1059       H  0.32106482  0.09964693  0.61073672     0.35710
H1060       H  0.31629569  0.10658817  0.63009898     0.40810
H1061       H  0.39043192  0.10386188  0.64001387     0.40430
H1062       H  0.38754050  0.12258269  0.63915923     0.35320
C1063       C  0.64264455  0.10405440  0.64607325    -0.26410
C1064       C  0.65181066  0.11489209  0.63784486    -0.14480
C1065       C  0.65191235  0.11565756  0.61946197     0.36150
C1066       C  0.64229164  0.10611705  0.60992494    -0.25860
C1067       C  0.63262965  0.09576772  0.61819358    -0.15100
C1068       C  0.63309474  0.09441986  0.63652320     0.37230
N1069       N  0.62416070  0.08347974  0.64589642    -0.89350
H1070       H  0.64263785  0.10328950  0.66012564     0.18340
H1071       H  0.64217672  0.10698604  0.59588050     0.18330
N1072       N  0.66184921  0.12557615  0.60996980    -0.88380
H1073       H  0.63165337  0.07639856  0.65255983     0.35710
H1074       H  0.61809539  0.07637866  0.63755779     0.40810
H1075       H  0.66984278  0.13080438  0.61796772     0.40430
H1076       H  0.65522373  0.13408333  0.60437239     0.35320
C1077       C  0.50704380  0.05314425  0.59351279    -0.26410
C1078       C  0.51462366  0.06493731  0.58493789    -0.14480
C1079       C  0.50613196  0.07683183  0.57733717     0.36150
C1080       C  0.49025473  0.07632442  0.57819494    -0.25860
C1081       C  0.48271013  0.06416925  0.58618077    -0.15100
C1082       C  0.49123750  0.05265091  0.59437197     0.37230
N1083       N  0.48432469  0.04043097  0.60388250    -0.89350
H1084       H  0.51350706  0.04410915  0.59950946     0.18340
H1085       H  0.48374573  0.08507661  0.57174088     0.18330
N1086       N  0.51303543  0.08898710  0.56770794    -0.88380
H1087       H  0.48621469  0.03038629  0.59694413     0.35710
H1088       H  0.47263852  0.04179831  0.60511173     0.40810
H1089       H  0.52477731  0.08791009  0.56704432     0.40430
H1090       H  0.51078815  0.09911335  0.57434120     0.35320
C1091       C  0.40149288  0.00202352  0.48620846    -0.26410
C1092       C  0.39225074  0.98916831  0.48818898    -0.14480
C1093       C  0.38240890  0.98828966  0.50274258     0.36150
C1094       C  0.38308356  0.99971400  0.51553744    -0.25860
C1095       C  0.39344726  0.01175301  0.51423603    -0.15100
C1096       C  0.40222858  0.01323731  0.49899645     0.37230
N1097       N  0.41204201  0.02597782  0.49614462    -0.89350
H1098       H  0.40881434  0.00299419  0.47494793     0.18340
H1099       H  0.37623029  0.99858966  0.52715140     0.18330
N1100       N  0.37249677  0.97559542  0.50574355    -0.88380
H1101       H  0.42067612  0.02597144  0.50538269     0.35710
H1102       H  0.40570847  0.03592834  0.49754444     0.40810
H1103       H  0.37334164  0.96741269  0.49599982     0.40430
H1104       H  0.36137881  0.97965625  0.50544883     0.35320
C1105       C  0.61407572  0.98990804  0.49935594    -0.26410
C1106       C  0.60172728  0.98969503  0.48789511    -0.14480
C1107       C  0.59067127  0.00119339  0.48908605     0.36150
C1108       C  0.59142386  0.01176232  0.50266408    -0.25860
C1109       C  0.60295464  0.01119372  0.51517390    -0.15100
C1110       C  0.61476944  0.00039342  0.51318274     0.37230
N1111       N  0.62710337  0.99907008  0.52526983    -0.89350
H1112       H  0.62267878  0.98118438  0.49834227     0.18340
H1113       H  0.58256419  0.02020957  0.50388841     0.18330
N1114       N  0.57849295  0.00187887  0.47671222    -0.88380
H1115       H  0.62633550  0.98836950  0.53105690     0.35710
H1116       H  0.62632620  0.00695989  0.53532224     0.40810
H1117       H  0.58325539  0.00414134  0.46455486     0.40430
H1118       H  0.57120951  0.01090630  0.47954736     0.35320
C1119       C  0.50638547  0.92029781  0.41866182    -0.26410
C1120       C  0.51394337  0.93413835  0.42132528    -0.14480
C1121       C  0.50542593  0.94765701  0.42275407     0.36150
C1122       C  0.48963839  0.94695017  0.42259608    -0.25860
C1123       C  0.48199985  0.93303537  0.42098089    -0.15100
C1124       C  0.49051056  0.91958807  0.41856367     0.37230
N1125       N  0.48342841  0.90500886  0.41698621    -0.89350
H1126       H  0.51284418  0.90988902  0.41746382     0.18340
H1127       H  0.48325671  0.95737692  0.42413593     0.18330
N1128       N  0.51246866  0.96229055  0.42410773    -0.88380
H1129       H  0.47678448  0.90492382  0.40577615     0.35710
H1130       H  0.47644301  0.90330007  0.42777794     0.40810
H1131       H  0.51993619  0.96360072  0.41367108     0.40430
H1132       H  0.51857562  0.96291808  0.43568099     0.35320
C1133       C  0.99047752  0.92715020  0.09753528    -0.26410
C1134       C  0.98263460  0.93124163  0.08239669    -0.14480
C1135       C  0.99087090  0.93409794  0.06701846     0.36150
C1136       C  0.00669601  0.93389034  0.06742527    -0.25860
C1137       C  0.01467007  0.93082409  0.08277414    -0.15100
C1138       C  0.00646574  0.92702098  0.09794461     0.37230
N1139       N  0.01427810  0.92362972  0.11382231    -0.89350
H1140       H  0.98414116  0.92479371  0.10928104     0.18340
H1141       H  0.01284728  0.93620800  0.05555169     0.18330
N1142       N  0.98315445  0.93715097  0.05095601    -0.88380
H1143       H  0.00656954  0.92088002  0.12364327     0.35710
H1144       H  0.01984010  0.93352545  0.11784196     0.40810
H1145       H  0.97714484  0.92735439  0.04751397     0.40430
H1146       H  0.99087412  0.93921421  0.04092694     0.35320
C1147       C  0.12574277  0.10407587  0.87404330    -0.26410
C1148       C  0.13177734  0.09753792  0.88918529    -0.14480
C1149       C  0.14736086  0.09968438  0.89288720     0.36150
C1150       C  0.15634949  0.10832604  0.88147449    -0.25860
C1151       C  0.15007040  0.11521174  0.86678508    -0.15100
C1152       C  0.13460957  0.11289896  0.86287189     0.37230
N1153       N  0.12745508  0.11936091  0.84781937    -0.89350
H1154       H  0.11395147  0.10236708  0.87071957     0.18340
H1155       H  0.16820090  0.11025502  0.88443905     0.18330
N1156       N  0.15394013  0.09366030  0.90846831    -0.88380
H1157       H  0.12361809  0.11037651  0.84006507     0.35710
H1158       H  0.13508066  0.12547382  0.84019428     0.40810
H1159       H  0.14895404  0.09929048  0.91898774     0.40430
H1160       H  0.16553048  0.09607946  0.90902854     0.35320
C1161       C  0.09350761  0.01384315  0.00522022    -0.26410
C1162       C  0.10399690  0.01176700  0.99174283    -0.14480
C1163       C  0.11506893  0.00016945  0.99327101     0.36150
C1164       C  0.11457411  0.99038214  0.00769471    -0.25860
C1165       C  0.10314511  0.99170803  0.02029109    -0.15100
C1166       C  0.09298150  0.00403887  0.01946187     0.37230
N1167       N  0.08190356  0.00636692  0.03291589    -0.89350
H1168       H  0.08526556  0.02291944  0.00431575     0.18340
H1169       H  0.12252018  0.98103768  0.00839337     0.18330
N1170       N  0.12638805  0.99739277  0.98020760    -0.88380
H1171       H  0.07516308  0.01582381  0.03022526     0.35710
H1172       H  0.08775083  0.00880933  0.04439427     0.40810
H1173       H  0.12552415  0.00494089  0.96987701     0.40430
H1174       H  0.12440972  0.98657107  0.97505077     0.35320
C1175       C  0.87064899  0.10863721  0.87824981    -0.26410
C1176       C  0.86460192  0.09694215  0.88861720    -0.14480
C1177       C  0.84877159  0.09414240  0.88780505     0.36150
C1178       C  0.83953092  0.10352389  0.87750133    -0.25860
C1179       C  0.84568218  0.11536582  0.86762662    -0.15100
C1180       C  0.86153603  0.11757500  0.86754940     0.37230
N1181       N  0.86893854  0.12828127  0.85630070    -0.89350
H1182       H  0.88266331  0.11099612  0.87824561     0.18340
H1183       H  0.82738577  0.10170600  0.87733575     0.18330
N1184       N  0.84203449  0.08179312  0.89720271    -0.88380
H1185       H  0.87292605  0.13724508  0.86397757     0.35710
H1186       H  0.86161163  0.13273199  0.84700841     0.40810
H1187       H  0.84607859  0.07171005  0.89170889     0.40430
H1188       H  0.83027640  0.08165970  0.89557579     0.35320
C1189       C  0.90573004  0.01328688  0.00385448    -0.26410
C1190       C  0.89422007  0.01192271  0.99145826    -0.14480
C1191       C  0.88252197  0.00119291  0.99412993     0.36150
C1192       C  0.88331527  0.99125846  0.00838444    -0.25860
C1193       C  0.89558825  0.99189566  0.02001306    -0.15100
C1194       C  0.90646267  0.00356008  0.01808195     0.37230
N1195       N  0.91836447  0.00562262  0.03051717    -0.89350
H1196       H  0.91452901  0.02177847  0.00226021     0.18340
H1197       H  0.87474144  0.98253664  0.00984376     0.18330
N1198       N  0.87020395  0.99961831  0.98217698    -0.88380
H1199       H  0.91756109  0.01662777  0.03556531     0.35710
H1200       H  0.92873075  0.00471064  0.02401023     0.40810
H1201       H  0.87463216  0.99746140  0.96981919     0.40430
H1202       H  0.86430877  0.00989055  0.98183332     0.35320
C1203       C  0.99008040  0.05194557  0.91764774    -0.26410
C1204       C  0.98257893  0.06535169  0.92241472    -0.14480
C1205       C  0.99123587  0.07864388  0.92574207     0.36150
C1206       C  0.00711588  0.07792460  0.92467938    -0.25860
C1207       C  0.01457013  0.06426774  0.92072004    -0.15100
C1208       C  0.00584732  0.05126582  0.91650449     0.37230
N1209       N  0.01248610  0.03730189  0.91052703    -0.89350
H1210       H  0.98357221  0.04181340  0.91466170     0.18340
H1211       H  0.01370682  0.08791129  0.92802457     0.18330
N1212       N  0.98458497  0.09268589  0.93146603    -0.88380
H1213       H  0.01184334  0.02944313  0.92065179     0.35710
H1214       H  0.02383249  0.03865513  0.90706397     0.40810
H1215       H  0.97297965  0.09171030  0.93363272     0.40430
H1216       H  0.98615069  0.10066879  0.92160162     0.35320
C1217       C  0.84586318  0.61752916  0.12074099    -0.26410
C1218       C  0.84567171  0.61539669  0.13880625    -0.14480
C1219       C  0.85484593  0.60387695  0.14617682     0.36150
C1220       C  0.86376106  0.59483592  0.13520673    -0.25860
C1221       C  0.86409756  0.59715197  0.11720815    -0.15100
C1222       C  0.85495415  0.60862700  0.10983549     0.37230
N1223       N  0.85510558  0.61215343  0.09160714    -0.89350
H1224       H  0.83901425  0.62641579  0.11502630     0.18340
H1225       H  0.87086960  0.58613694  0.14088778     0.18330
N1226       N  0.85599707  0.60134622  0.16459271    -0.88380
H1227       H  0.84437907  0.60960189  0.08663551     0.35710
H1228       H  0.86289192  0.60559652  0.08472308     0.40810
H1229       H  0.85003962  0.60941061  0.17174386     0.40430
H1230       H  0.86734720  0.60285545  0.16808280     0.35320
C1231       C  0.85541516  0.90798563  0.12976222    -0.26410
C1232       C  0.86380429  0.90160547  0.11613970    -0.14480
C1233       C  0.86243471  0.88592159  0.11253831     0.36150
C1234       C  0.85299243  0.87699467  0.12294710    -0.25860
C1235       C  0.84489261  0.88314196  0.13706665    -0.15100
C1236       C  0.84618819  0.89892885  0.14049525     0.37230
N1237       N  0.83868490  0.90569828  0.15514816    -0.89350
H1238       H  0.85662485  0.92000676  0.13252353     0.18340
H1239       H  0.85200909  0.86506458  0.11974423     0.18330
N1240       N  0.87034884  0.87860897  0.09846201    -0.88380
H1241       H  0.84058868  0.91741982  0.15553679     0.35710
H1242       H  0.84362536  0.90123695  0.16636192     0.40810
H1243       H  0.87658390  0.88630922  0.09107564     0.40430
H1244       H  0.86220955  0.87405803  0.09006019     0.35320
C1245       C  0.79978051  0.75770628  0.17509565    -0.26410
C1246       C  0.81358880  0.76518369  0.17209432    -0.14480
C1247       C  0.82655843  0.75636979  0.16807597     0.36150
C1248       C  0.82555525  0.74045061  0.16816372    -0.25860
C1249       C  0.81190706  0.73308021  0.17228303    -0.15100
C1250       C  0.79881719  0.74185859  0.17519461     0.37230
N1251       N  0.78444965  0.73474471  0.17820569    -0.89350
H1252       H  0.78961853  0.76421197  0.17771654     0.18340
H1253       H  0.83567639  0.73381971  0.16576826     0.18330
N1254       N  0.84102958  0.76311448  0.16474843    -0.88380
H1255       H  0.77690850  0.73847322  0.16866926     0.35710
H1256       H  0.78040109  0.73842134  0.19027234     0.40810
H1257       H  0.84383051  0.77028088  0.17511373     0.40430
H1258       H  0.84033077  0.76944959  0.15334672     0.35320
C1259       C  0.63689076  0.62020395  0.37296098    -0.26410
C1260       C  0.65153577  0.61507683  0.36894061    -0.14480
C1261       C  0.65617607  0.60071540  0.37526174     0.36150
C1262       C  0.64607220  0.59186634  0.38500164    -0.25860
C1263       C  0.63134214  0.59692371  0.38874111    -0.15100
C1264       C  0.62686110  0.61147095  0.38297266     0.37230
N1265       N  0.61234513  0.61759616  0.38771123    -0.89350
H1266       H  0.63323339  0.63122277  0.36838512     0.18340
H1267       H  0.64976242  0.58083501  0.38951314     0.18330
N1268       N  0.67115927  0.59496082  0.37261724    -0.88380
H1269       H  0.61079872  0.62837013  0.38232871     0.35710
H1270       H  0.61228130  0.61904693  0.40119593     0.40810
H1271       H  0.67899676  0.60315497  0.37665328     0.40430
H1272       H  0.67267607  0.59261360  0.35945057     0.35320
C1273       C  0.74861080  0.63358078  0.26779377    -0.26410
C1274       C  0.73505171  0.64125966  0.26424525    -0.14480
C1275       C  0.73278620  0.64763489  0.24760359     0.36150
C1276       C  0.74471155  0.64760209  0.23567468    -0.25860
C1277       C  0.75872393  0.64105037  0.23968243    -0.15100
C1278       C  0.76057314  0.63346213  0.25573865     0.37230
N1279       N  0.77456875  0.62636690  0.26070661    -0.89350
H1280       H  0.75036006  0.62864190  0.28051363     0.18340
H1281       H  0.74319641  0.65329277  0.22332586     0.18330
N1282       N  0.71875752  0.65465839  0.24255235    -0.88380
H1283       H  0.77894384  0.63242332  0.27128092     0.35710
H1284       H  0.78266030  0.62694099  0.25086276     0.40810
H1285       H  0.71035923  0.65309413  0.25191964     0.40430
H1286       H  0.71483076  0.64895564  0.23150062     0.35320
C1287       C  0.64612597  0.90633498  0.38430200    -0.26410
C1288       C  0.63096190  0.90198538  0.38683648    -0.14480
C1289       C  0.62609105  0.88767884  0.38053005     0.36150
C1290       C  0.63625381  0.87846209  0.37128261    -0.25860
C1291       C  0.65135062  0.88285755  0.36857581    -0.15100
C1292       C  0.65642471  0.89690908  0.37552431     0.37230
N1293       N  0.67198299  0.90168464  0.37485833    -0.89350
H1294       H  0.65010906  0.91712310  0.38935285     0.18340
H1295       H  0.63231793  0.86768662  0.36614340     0.18330
N1296       N  0.61098714  0.88230264  0.38387785    -0.88380
H1297       H  0.67284597  0.91032828  0.36563371     0.35710
H1298       H  0.67920525  0.89288476  0.37120523     0.40810
H1299       H  0.60995086  0.88077165  0.39728809     0.40430
H1300       H  0.60920644  0.87165987  0.37816288     0.35320
C1301       C  0.73497405  0.86274221  0.25205055    -0.26410
C1302       C  0.73915207  0.85716930  0.26840262    -0.14480
C1303       C  0.75429756  0.85264336  0.27130525     0.36150
C1304       C  0.76446878  0.85250167  0.25739241    -0.25860
C1305       C  0.76004034  0.85692551  0.24067570    -0.15100
C1306       C  0.74517908  0.86254710  0.23803370     0.37230
N1307       N  0.73970544  0.86720104  0.22128756    -0.89350
H1308       H  0.72335120  0.86615826  0.24979121     0.18340
H1309       H  0.77584499  0.84827250  0.25952215     0.18330
N1310       N  0.75961585  0.84760528  0.28798576    -0.88380
H1311       H  0.73109171  0.85967484  0.21764244     0.35710
H1312       H  0.74804760  0.86643116  0.21175260     0.40810
H1313       H  0.75133686  0.84887473  0.29755576     0.40430
H1314       H  0.76849346  0.85479616  0.29168008     0.35320
C1315       C  0.69661464  0.75773914  0.33582783    -0.26410
C1316       C  0.68260237  0.76504425  0.33401678    -0.14480
C1317       C  0.66914002  0.75620673  0.33414844     0.36150
C1318       C  0.67021028  0.74032986  0.33550639    -0.25860
C1319       C  0.68432269  0.73305867  0.33637548    -0.15100
C1320       C  0.69765996  0.74196775  0.33720875     0.37230
N1321       N  0.71242462  0.73550887  0.33983446    -0.89350
H1322       H  0.70695442  0.76439902  0.33617875     0.18340
H1323       H  0.65995995  0.73356439  0.33473708     0.18330
N1324       N  0.65435240  0.76263208  0.33160815    -0.88380
H1325       H  0.71841752  0.73640834  0.32816549     0.35710
H1326       H  0.71187266  0.72405574  0.34320295     0.40810
H1327       H  0.65478650  0.77420554  0.32890543     0.40430
H1328       H  0.64829167  0.76130096  0.34317484     0.35320
C1329       C  0.36919987  0.88716507  0.38380976    -0.26410
C1330       C  0.36447439  0.90219615  0.38652992    -0.14480
C1331       C  0.35060520  0.90700910  0.37918829     0.36150
C1332       C  0.34177480  0.89669594  0.36967590    -0.25860
C1333       C  0.34642173  0.88159001  0.36715364    -0.15100
C1334       C  0.36048863  0.87688228  0.37405356     0.37230
N1335       N  0.36617393  0.86186459  0.37071176    -0.89350
H1336       H  0.37989090  0.88342487  0.38919705     0.18340
H1337       H  0.33111762  0.90054839  0.36431071     0.18330
N1338       N  0.34543355  0.92237315  0.38051736    -0.88380
H1339       H  0.37660782  0.86021737  0.37683517     0.35710
H1340       H  0.36817561  0.86097484  0.35736019     0.40810
H1341       H  0.35400237  0.92961338  0.37610977     0.40430
H1342       H  0.34304870  0.92481864  0.39349395     0.35320
C1343       C  0.35013766  0.59148560  0.38486723    -0.26410
C1344       C  0.36531682  0.59583089  0.38726740    -0.14480
C1345       C  0.37027543  0.60992090  0.38052051     0.36150
C1346       C  0.36023524  0.61881239  0.37077942    -0.25860
C1347       C  0.34517316  0.61431010  0.36801843    -0.15100
C1348       C  0.34004201  0.60054146  0.37545350     0.37230
N1349       N  0.32458516  0.59568819  0.37431824    -0.89350
H1350       H  0.34606176  0.58086654  0.39020128     0.18340
H1351       H  0.36421104  0.62945460  0.36540115     0.18330
N1352       N  0.38530968  0.61544541  0.38397872    -0.88380
H1353       H  0.32204400  0.59314727  0.36141005     0.35710
H1354       H  0.31759670  0.60449156  0.37866277     0.40810
H1355       H  0.38613510  0.61736715  0.39735399     0.40430
H1356       H  0.38714658  0.62592277  0.37797043     0.35320
C1357       C  0.31400276  0.73980409  0.31672937    -0.26410
C1358       C  0.31456554  0.73233322  0.33280219    -0.14480
C1359       C  0.31569474  0.74113743  0.34825552     0.36150
C1360       C  0.31593632  0.75706849  0.34704479    -0.25860
C1361       C  0.31436107  0.76441260  0.33100247    -0.15100
C1362       C  0.31388530  0.75567331  0.31563608     0.37230
N1363       N  0.31327455  0.76293221  0.29894423    -0.89350
H1364       H  0.31342727  0.73316975  0.30486406     0.18340
H1365       H  0.31635813  0.76375568  0.35887861     0.18330
N1366       N  0.31578173  0.73457972  0.36535070    -0.88380
H1367       H  0.31283691  0.75487154  0.28895367     0.35710
H1368       H  0.32338116  0.76897045  0.29731433     0.40810
H1369       H  0.31421771  0.72287528  0.36500375     0.40430
H1370       H  0.30640275  0.73885311  0.37206316     0.35320
C1371       C  0.14059513  0.60510142  0.14731712    -0.26410
C1372       C  0.15176400  0.61327121  0.13837882    -0.14480
C1373       C  0.15358601  0.61098308  0.12029270     0.36150
C1374       C  0.14375424  0.60105792  0.11155376    -0.25860
C1375       C  0.13215538  0.59333581  0.12036199    -0.15100
C1376       C  0.13085766  0.59503792  0.13863496     0.37230
N1377       N  0.12003528  0.58669570  0.14886352    -0.89350
H1378       H  0.13932609  0.60666022  0.16121821     0.18340
H1379       H  0.14499179  0.59962912  0.09763397     0.18330
N1380       N  0.16540975  0.61818741  0.11042658    -0.88380
H1381       H  0.12608984  0.58054771  0.15814548     0.35710
H1382       H  0.11437899  0.57852894  0.14148851     0.40810
H1383       H  0.17276160  0.62445419  0.11826822     0.40430
H1384       H  0.16029454  0.62577744  0.10183123     0.35320
C1385       C  0.24753923  0.63286675  0.24002820    -0.26410
C1386       C  0.23477911  0.64217232  0.24205347    -0.14480
C1387       C  0.23261651  0.65004305  0.25784865     0.36150
C1388       C  0.24371902  0.64941213  0.27065685    -0.25860
C1389       C  0.25720791  0.64130328  0.26809355    -0.15100
C1390       C  0.25892246  0.63241417  0.25279307     0.37230
N1391       N  0.27236030  0.62381508  0.24902967    -0.89350
H1392       H  0.24921424  0.62678127  0.22791923     0.18340
H1393       H  0.24212805  0.65601045  0.28243392     0.18330
N1394       N  0.21931773  0.65890141  0.26120579    -0.88380
H1395       H  0.26928304  0.61234921  0.24858626     0.35710
H1396       H  0.28051236  0.62493272  0.25871156     0.40810
H1397       H  0.20980625  0.65201179  0.25927923     0.40430
H1398       H  0.21889052  0.66797385  0.25253827     0.35320
C1399       C  0.12873027  0.88718739  0.12082415    -0.26410
C1400       C  0.13287981  0.90247625  0.11887167    -0.14480
C1401       C  0.14669964  0.90757730  0.12622269     0.36150
C1402       C  0.15616258  0.89714580  0.13463284    -0.25860
C1403       C  0.15202849  0.88180365  0.13653786    -0.15100
C1404       C  0.13792410  0.87688588  0.12981752     0.37230
N1405       N  0.13268563  0.86160948  0.13251866    -0.89350
H1406       H  0.11812415  0.88322101  0.11536261     0.18340
H1407       H  0.16678262  0.90120007  0.13995841     0.18330
N1408       N  0.15116352  0.92327371  0.12638774    -0.88380
H1409       H  0.12221067  0.85982346  0.12651220     0.35710
H1410       H  0.13089693  0.86024788  0.14585003     0.40810
H1411       H  0.14218571  0.93047432  0.12338567     0.40430
H1412       H  0.15962982  0.92469573  0.11703414     0.35320
C1413       C  0.24973315  0.86232917  0.23743413    -0.26410
C1414       C  0.23500189  0.85792481  0.24210984    -0.14480
C1415       C  0.23175542  0.85453606  0.25967508     0.36150
C1416       C  0.24358596  0.85416382  0.27170916    -0.25860
C1417       C  0.25852584  0.85740386  0.26682085    -0.15100
C1418       C  0.26161728  0.86201821  0.24956593     0.37230
N1419       N  0.27665683  0.86557925  0.24363118    -0.89350
H1420       H  0.25225799  0.86492358  0.22398378     0.18340
H1421       H  0.24116770  0.85069266  0.28492828     0.18330
N1422       N  0.21672918  0.85090717  0.26565111    -0.88380
H1423       H  0.27975537  0.85732482  0.23451041     0.35710
H1424       H  0.28456700  0.86504686  0.25366007     0.40810
H1425       H  0.20868888  0.85242196  0.25588803     0.40430
H1426       H  0.21392136  0.85877444  0.27532719     0.35320
C1427       C  0.17256879  0.75726444  0.16641520    -0.26410
C1428       C  0.18501744  0.76498270  0.17356270    -0.14480
C1429       C  0.19788999  0.75662417  0.17857663     0.36150
C1430       C  0.19774962  0.74076520  0.17707694    -0.25860
C1431       C  0.18501834  0.73278765  0.17083280    -0.15100
C1432       C  0.17237873  0.74135092  0.16502121     0.37230
N1433       N  0.15903804  0.73440683  0.15806068    -0.89350
H1434       H  0.16270478  0.76362369  0.16231845     0.18340
H1435       H  0.20781640  0.73463349  0.18086813     0.18330
N1436       N  0.21117709  0.76424964  0.18502736    -0.88380
H1437       H  0.15491899  0.72644458  0.16693403     0.35710
H1438       H  0.16182778  0.72911457  0.14634149     0.40810
H1439       H  0.21558147  0.77079659  0.17490087     0.40430
H1440       H  0.21957743  0.75644430  0.18840691     0.35320
loop_ 
_geom_bond_atom_site_label_1 
_geom_bond_atom_site_label_2 
_geom_bond_distance 
_geom_bond_site_symmetry_2 
_ccdc_geom_bond_type 
N1            N2   1.322       .  A
N1            C5   1.350       .  A
N1           Cu9   2.081       .  S
N2            C3   1.339       .  A
N2           Cu8   2.059       .  S
C3            C4   1.379       .  A
C3            H6   1.082       .  S
C4            C5   1.386       .  A
C4         C1414   1.474       .  S
C5            H7   1.082       .  S
Cu8          N11   2.059       .  S
Cu9          N19   2.083       .  S
Cu10         N12   2.078       .  S
Cu10         N18   2.079       .  S
N11          N12   1.320       .  A
N11          C15   1.340       .  A
N12          C13   1.349       .  A
C13          C14   1.388       .  A
C13          H16   1.082       .  S
C14          C15   1.384       .  A
C14        C1428   1.483       .  S
C15          H17   1.082       .  S
N18          N19   1.324       .  A
N18          C22   1.343       .  A
N19          C20   1.346       .  A
C20          C21   1.388       .  A
C20          H23   1.082       .  S
C21          C22   1.387       .  A
C21        C1403   1.491       .  S
C22          H24   1.080       .  S
N25          N26   1.320       .  A
N25          C29   1.350       .  A
N25         Cu33   2.080       .  S
N26          C27   1.338       .  A
N26         Cu32   2.050       .  S
C27          C28   1.378       .  A
C27          H30   1.082       .  S
C28          C29   1.387       .  A
C28        C1386   1.473       .  S
C29          H31   1.082       .  S
Cu32         N35   2.050       .  S
Cu33         N43   2.083       .  S
Cu34         N36   2.085       .  S
Cu34         N42   2.088       .  S
N35          N36   1.317       .  A
N35          C39   1.337       .  A
N36          C37   1.350       .  A
C37          C38   1.398       .  A
C37          H40   1.078       .  S
C38          C39   1.387       .  A
C38        C1431   1.499       .  S
C39          H41   1.081       .  S
N42          N43   1.327       .  A
N42          C46   1.346       .  A
N43          C44   1.346       .  A
C44          C45   1.380       .  A
C44          H47   1.082       .  S
C45          C46   1.382       .  A
C45        C1372   1.475       .  S
C46          H48   1.082       .  S
N49          N50   1.320       .  A
N49          C53   1.351       .  A
N49         Cu57   2.082       .  S
N50          C51   1.337       .  A
N50         Cu56   2.053       .  S
C51          C52   1.379       .  A
C51          H54   1.082       .  S
C52          C53   1.389       .  A
C52        C1389   1.479       .  S
C53          H55   1.082       .  S
Cu56         N59   2.053       .  S
Cu57         N67   2.084       .  S
Cu58         N60   2.076       .  S
Cu58         N66   2.078       .  S
N59          N60   1.318       .  A
N59          C63   1.339       .  A
N60          C61   1.349       .  A
C61          C62   1.390       .  A
C61          H64   1.082       .  S
C62          C63   1.382       .  A
C62        C1358   1.483       .  S
C63          H65   1.082       .  S
N66          N67   1.325       .  A
N66          C70   1.342       .  A
N67          C68   1.346       .  A
C68          C69   1.387       .  A
C68          H71   1.080       .  S
C69          C70   1.384       .  A
C69        C1347   1.484       .  S
C70          H72   1.082       .  S
N73          N74   1.322       .  A
N73          C77   1.350       .  A
N73         Cu81   2.082       .  S
N74          C75   1.340       .  A
N74         Cu80   2.058       .  S
C75          C76   1.378       .  A
C75          H78   1.082       .  S
C76          C77   1.386       .  A
C76        C1417   1.473       .  S
C77          H79   1.082       .  S
Cu80         N83   2.058       .  S
Cu81         N91   2.084       .  S
Cu82         N84   2.073       .  S
Cu82         N90   2.075       .  S
N83          N84   1.319       .  A
N83          C87   1.340       .  A
N84          C85   1.348       .  A
C85          C86   1.387       .  A
C85          H88   1.082       .  S
C86          C87   1.383       .  A
C86        C1361   1.481       .  S
C87          H89   1.082       .  S
N90          N91   1.324       .  A
N90          C94   1.342       .  A
N91          C92   1.346       .  A
C92          C93   1.387       .  A
C92          H95   1.082       .  S
C93          C94   1.385       .  A
C93        C1333   1.487       .  S
C94          H96   1.081       .  S
N97          N98   1.322       .  A
N97         C101   1.350       .  A
N97        Cu105   2.084       .  S
N98          C99   1.340       .  A
N98        Cu104   2.060       .  S
C99         C100   1.378       .  A
C99         H102   1.082       .  S
C100        C101   1.385       .  A
C100       C1302   1.473       .  S
C101        H103   1.082       .  S
Cu104       N107   2.060       .  S
Cu105       N115   2.085       .  S
Cu106       N108   2.077       .  S
Cu106       N114   2.079       .  S
N107        N108   1.320       .  A
N107        C111   1.341       .  A
N108        C109   1.349       .  A
C109        C110   1.388       .  A
C109        H112   1.082       .  S
C110        C111   1.382       .  A
C110       C1316   1.480       .  S
C111        H113   1.082       .  S
N114        N115   1.324       .  A
N114        C118   1.343       .  A
N115        C116   1.348       .  A
C116        C117   1.387       .  A
C116        H119   1.082       .  S
C117        C118   1.383       .  A
C117       C1291   1.484       .  S
C118        H120   1.082       .  S
N121        N122   1.321       .  A
N121        C125   1.350       .  A
N121       Cu129   2.081       .  S
N122        C123   1.339       .  A
N122       Cu128   2.058       .  S
C123        C124   1.379       .  A
C123        H126   1.082       .  S
C124        C125   1.386       .  A
C124       C1274   1.474       .  S
C125        H127   1.082       .  S
Cu128       N131   2.058       .  S
Cu129       N139   2.083       .  S
Cu130       N132   2.079       .  S
Cu130       N138   2.081       .  S
N131        N132   1.320       .  A
N131        C135   1.340       .  A
N132        C133   1.349       .  A
C133        C134   1.387       .  A
C133        H136   1.082       .  S
C134        C135   1.381       .  A
C134       C1319   1.478       .  S
C135        H137   1.082       .  S
N138        N139   1.324       .  A
N138        C142   1.342       .  A
N139        C140   1.347       .  A
C140        C141   1.388       .  A
C140        H143   1.079       .  S
C141        C142   1.386       .  A
C141       C1260   1.488       .  S
C142        H144   1.082       .  S
N145        N146   1.322       .  A
N145        C149   1.350       .  A
N145       Cu153   2.083       .  S
N146        C147   1.339       .  A
N146       Cu152   2.059       .  S
C147        C148   1.379       .  A
C147        H150   1.082       .  S
C148        C149   1.387       .  A
C148       C1305   1.476       .  S
C149        H151   1.082       .  S
Cu152       N155   2.059       .  S
Cu153       N163   2.085       .  S
Cu154       N156   2.073       .  S
Cu154       N162   2.075       .  S
N155        N156   1.318       .  A
N155        C159   1.339       .  A
N156        C157   1.348       .  A
C157        C158   1.391       .  A
C157        H160   1.080       .  S
C158        C159   1.385       .  A
C158       C1246   1.486       .  S
C159        H161   1.082       .  S
N162        N163   1.323       .  A
N162        C166   1.341       .  A
N163        C164   1.347       .  A
C164        C165   1.392       .  A
C164        H167   1.080       .  S
C165        C166   1.388       .  A
C165       C1235   1.495       .  S
C166        H168   1.081       .  S
N169        N170   1.321       .  A
N169        C173   1.350       .  A
N169       Cu177   2.079       .  S
N170        C171   1.339       .  A
N170       Cu176   2.056       .  S
C171        C172   1.378       .  A
C171        H174   1.082       .  S
C172        C173   1.387       .  A
C172       C1277   1.474       .  S
C173        H175   1.082       .  S
Cu176       N179   2.056       .  S
Cu177       N187   2.081       .  S
Cu178       N180   2.077       .  S
Cu178       N186   2.080       .  S
N179        N180   1.319       .  A
N179        C183   1.339       .  A
N180        C181   1.349       .  A
C181        C182   1.389       .  A
C181        H184   1.082       .  S
C182        C183   1.383       .  A
C182       C1249   1.481       .  S
C183        H185   1.082       .  S
N186        N187   1.325       .  A
N186        C190   1.344       .  A
N187        C188   1.346       .  A
C188        C189   1.384       .  A
C188        H191   1.082       .  S
C189        C190   1.381       .  A
C189       C1218   1.478       .  S
C190        H192   1.082       .  S
N193        N194   1.321       .  A
N193        C197   1.351       .  A
N193       Cu201   2.083       .  S
N194        C195   1.337       .  A
N194       Cu200   2.057       .  S
C195        C196   1.380       .  A
C195        H198   1.082       .  S
C196        C197   1.389       .  A
C196       C1190   1.478       .  S
C197        H199   1.081       .  S
Cu200       N203   2.058       .  S
Cu201       N211   2.085       .  S
Cu202       N204   2.076       .  S
Cu202       N210   2.078       .  S
N203        N204   1.319       .  A
N203        C207   1.341       .  A
N204        C205   1.349       .  A
C205        C206   1.389       .  A
C205        H208   1.082       .  S
C206        C207   1.382       .  A
C206       C1204   1.481       .  S
C207        H209   1.082       .  S
N210        N211   1.322       .  A
N210        C214   1.341       .  A
N211        C212   1.346       .  A
C212        C213   1.393       .  A
C212        H215   1.079       .  S
C213        C214   1.390       .  A
C213       C1176   1.499       .  S
C214        H216   1.080       .  S
N217        N218   1.321       .  A
N217        C221   1.350       .  A
N217       Cu225   2.080       .  S
N218        C219   1.338       .  A
N218       Cu224   2.060       .  S
C219        C220   1.381       .  A
C219        H222   1.082       .  S
C220        C221   1.389       .  A
C220       C1162   1.481       .  S
C221        H223   1.082       .  S
Cu224       N227   2.060       .  S
Cu225       N235   2.083       .  S
Cu226       N228   2.078       .  S
Cu226       N234   2.079       .  S
N227        N228   1.320       .  A
N227        C231   1.341       .  A
N228        C229   1.349       .  A
C229        C230   1.387       .  A
C229        H232   1.082       .  S
C230        C231   1.382       .  A
C230       C1207   1.480       .  S
C231        H233   1.082       .  S
N234        N235   1.323       .  A
N234        C238   1.342       .  A
N235        C236   1.346       .  A
C236        C237   1.390       .  A
C236        H239   1.080       .  S
C237        C238   1.387       .  A
C237       C1148   1.492       .  S
C238        H240   1.081       .  S
N241        N242   1.318       .  A
N241        C245   1.353       .  A
N241       Cu249   2.088       .  S
N242        C243   1.334       .  A
N242       Cu248   2.039       .  S
C243        C244   1.380       .  A
C243        H246   1.081       .  S
C244        C245   1.394       .  A
C244       C1193   1.485       .  S
C245        H247   1.082       .  S
Cu248       N251   2.039       .  S
Cu249       N259   2.093       .  S
Cu250       N252   2.079       .  S
Cu250       N258   2.083       .  S
N251        N252   1.317       .  A
N251        C255   1.336       .  A
N252        C253   1.351       .  A
C253        C254   1.391       .  A
C253        H256   1.082       .  S
C254        C255   1.381       .  A
C254       C1134   1.482       .  S
C255        H257   1.082       .  S
N258        N259   1.328       .  A
N258        C262   1.343       .  A
N259        C260   1.348       .  A
C260        C261   1.381       .  A
C260        H263   1.082       .  S
C261        C262   1.378       .  A
C261       C1232   1.472       .  S
C262        H264   1.082       .  S
N265        N266   1.320       .  A
N265        C269   1.353       .  A
N265       Cu273   2.091       .  S
N266        C267   1.336       .  A
N266       Cu272   2.046       .  S
C267        C268   1.379       .  A
C267        H270   1.082       .  S
C268        C269   1.392       .  A
C268       C1165   1.482       .  S
C269        H271   1.082       .  S
Cu272       N275   2.046       .  S
Cu273       N283   2.094       .  S
Cu274       N276   2.075       .  S
Cu274       N282   2.078       .  S
N275        N276   1.317       .  A
N275        C279   1.337       .  A
N276        C277   1.350       .  A
C277        C278   1.393       .  A
C277        H280   1.081       .  S
C278        C279   1.384       .  A
C278       C1137   1.486       .  S
C279        H281   1.082       .  S
N282        N283   1.326       .  A
N282        C286   1.342       .  A
N283        C284   1.348       .  A
C284        C285   1.387       .  A
C284        H287   1.082       .  S
C285        C286   1.381       .  A
C285       C1400   1.483       .  S
C286        H288   1.082       .  S
N289        N290   1.321       .  A
N289        C293   1.352       .  A
N289       Cu297   2.089       .  S
N290        C291   1.338       .  A
N290       Cu296   2.053       .  S
C291        C292   1.379       .  A
C291        H294   1.082       .  S
C292        C293   1.390       .  A
C292       C1106   1.480       .  S
C293        H295   1.082       .  S
Cu296       N299   2.054       .  S
Cu297       N307   2.091       .  S
Cu298       N300   2.075       .  S
Cu298       N306   2.077       .  S
N299        N300   1.319       .  A
N299        C303   1.340       .  A
N300        C301   1.348       .  A
C301        C302   1.386       .  A
C301        H304   1.082       .  S
C302        C303   1.380       .  A
C302       C1120   1.475       .  S
C303        H305   1.082       .  S
N306        N307   1.324       .  A
N306        C310   1.342       .  A
N307        C308   1.348       .  A
C308        C309   1.389       .  A
C308        H311   1.082       .  S
C309        C310   1.385       .  A
C309       C1288   1.489       .  S
C310        H312   1.081       .  S
N313        N314   1.321       .  A
N313        C317   1.351       .  A
N313       Cu321   2.084       .  S
N314        C315   1.339       .  A
N314       Cu320   2.059       .  S
C315        C316   1.379       .  A
C315        H318   1.082       .  S
C316        C317   1.389       .  A
C316       C1092   1.479       .  S
C317        H319   1.082       .  S
Cu320       N323   2.059       .  S
Cu321       N331   2.085       .  S
Cu322       N324   2.073       .  S
Cu322       N330   2.075       .  S
N323        N324   1.319       .  A
N323        C327   1.340       .  A
N324        C325   1.348       .  A
C325        C326   1.388       .  A
C325        H328   1.081       .  S
C326        C327   1.382       .  A
C326       C1123   1.479       .  S
C327        H329   1.082       .  S
N330        N331   1.324       .  A
N330        C334   1.342       .  A
N331        C332   1.347       .  A
C332        C333   1.387       .  A
C332        H335   1.080       .  S
C333        C334   1.383       .  A
C333       C1330   1.484       .  S
C334        H336   1.082       .  S
N337        N338   1.321       .  A
N337        C341   1.351       .  A
N337       Cu345   2.084       .  S
N338        C339   1.338       .  A
N338       Cu344   2.059       .  S
C339        C340   1.381       .  A
C339        H342   1.082       .  S
C340        C341   1.390       .  A
C340       C1109   1.482       .  S
C341        H343   1.082       .  S
Cu344       N347   2.059       .  S
Cu345       N355   2.085       .  S
Cu346       N348   2.074       .  S
Cu346       N354   2.076       .  S
N347        N348   1.320       .  A
N347        C351   1.342       .  A
N348        C349   1.348       .  A
C349        C350   1.386       .  A
C349        H352   1.082       .  S
C350        C351   1.380       .  A
C350       C1078   1.474       .  S
C351        H353   1.082       .  S
N354        N355   1.325       .  A
N354        C358   1.344       .  A
N355        C356   1.347       .  A
C356        C357   1.383       .  A
C356        H359   1.082       .  S
C357        C358   1.380       .  A
C357       C1067   1.475       .  S
C358        H360   1.082       .  S
N361        N362   1.322       .  A
N361        C365   1.351       .  A
N361       Cu369   2.088       .  S
N362        C363   1.339       .  A
N362       Cu368   2.060       .  S
C363        C364   1.378       .  A
C363        H366   1.082       .  S
C364        C365   1.387       .  A
C364       C1095   1.476       .  S
C365        H367   1.082       .  S
Cu368       N371   2.060       .  S
Cu369       N379   2.089       .  S
Cu370       N372   2.070       .  S
Cu370       N378   2.072       .  S
N371        N372   1.320       .  A
N371        C375   1.342       .  A
N372        C373   1.347       .  A
C373        C374   1.384       .  A
C373        H376   1.082       .  S
C374        C375   1.381       .  A
C374       C1081   1.473       .  S
C375        H377   1.082       .  S
N378        N379   1.320       .  A
N378        C382   1.340       .  A
N379        C380   1.346       .  A
C380        C381   1.397       .  A
C380        H383   1.080       .  S
C381        C382   1.393       .  A
C381       C1050   1.507       .  S
C382        H384   1.075       .  S
N385        N386   1.322       .  A
N385        C389   1.349       .  A
N385       Cu393   2.080       .  S
N386        C387   1.341       .  A
N386       Cu392   2.064       .  S
C387        C388   1.379       .  A
C387        H390   1.082       .  S
C388        C389   1.385       .  A
C388       C1022   1.474       .  S
C389        H391   1.082       .  S
Cu392       N395   2.064       .  S
Cu393       N403   2.081       .  S
Cu394       N396   2.076       .  S
Cu394       N402   2.077       .  S
N395        N396   1.321       .  A
N395        C399   1.342       .  A
N396        C397   1.348       .  A
C397        C398   1.386       .  A
C397        H400   1.082       .  S
C398        C399   1.383       .  A
C398       C1039   1.479       .  S
C399        H401   1.082       .  S
N402        N403   1.325       .  A
N402        C406   1.344       .  A
N403        C404   1.346       .  A
C404        C405   1.383       .  A
C404        H407   1.082       .  S
C405        C406   1.382       .  A
C405       C1064   1.477       .  S
C406        H408   1.082       .  S
N409        N410   1.321       .  A
N409        C413   1.350       .  A
N409       Cu417   2.083       .  S
N410        C411   1.339       .  A
N410       Cu416   2.060       .  S
C411        C412   1.380       .  A
C411        H414   1.082       .  S
C412        C413   1.388       .  A
C412       C1008   1.477       .  S
C413        H415   1.082       .  S
Cu416       N419   2.059       .  S
Cu417       N427   2.085       .  S
Cu418       N420   2.078       .  S
Cu418       N426   2.080       .  S
N419        N420   1.320       .  A
N419        C423   1.341       .  A
N420        C421   1.349       .  A
C421        C422   1.389       .  A
C421        H424   1.082       .  S
C422        C423   1.382       .  A
C422       C1036   1.480       .  S
C423        H425   1.082       .  S
N426        N427   1.326       .  A
N426        C430   1.344       .  A
N427        C428   1.347       .  A
C428        C429   1.382       .  A
C428        H431   1.082       .  S
C429        C430   1.381       .  A
C429        C994   1.475       .  S
C430        H432   1.082       .  S
N433        N434   1.321       .  A
N433        C437   1.352       .  A
N433       Cu441   2.090       .  S
N434        C435   1.338       .  A
N434       Cu440   2.053       .  S
C435        C436   1.379       .  A
C435        H438   1.082       .  S
C436        C437   1.390       .  A
C436       C1011   1.480       .  S
C437        H439   1.082       .  S
Cu440       N443   2.052       .  S
Cu441       N451   2.093       .  S
Cu442       N444   2.071       .  S
Cu442       N450   2.074       .  S
N443        N444   1.315       .  A
N443        C447   1.335       .  A
N444        C445   1.350       .  A
C445        C446   1.396       .  A
C445        H448   1.078       .  S
C446        C447   1.390       .  A
C446        C980   1.497       .  S
C447        H449   1.081       .  S
N450        N451   1.325       .  A
N450        C454   1.341       .  A
N451        C452   1.348       .  A
C452        C453   1.387       .  A
C452        H455   1.082       .  S
C453        C454   1.381       .  A
C453        C966   1.482       .  S
C454        H456   1.079       .  S
N457        N458   1.320       .  A
N457        C461   1.352       .  A
N457       Cu465   2.086       .  S
N458        C459   1.337       .  A
N458       Cu464   2.045       .  S
C459        C460   1.377       .  A
C459        H462   1.082       .  S
C460        C461   1.389       .  A
C460       C1025   1.474       .  S
C461        H463   1.082       .  S
Cu464       N467   2.044       .  S
Cu465       N475   2.089       .  S
Cu466       N468   2.082       .  S
Cu466       N474   2.086       .  S
N467        N468   1.314       .  A
N467        C471   1.334       .  A
N468        C469   1.350       .  A
C469        C470   1.401       .  A
C469        H472   1.081       .  S
C470        C471   1.391       .  A
C470        C983   1.506       .  S
C471        H473   1.074       .  S
N474        N475   1.328       .  A
N474        C478   1.344       .  A
N475        C476   1.347       .  A
C476        C477   1.382       .  A
C476        H479   1.082       .  S
C477        C478   1.381       .  A
C477       C1179   1.478       .  S
C478        H480   1.082       .  S
N481        N482   1.321       .  A
N481        C485   1.352       .  A
N481       Cu489   2.089       .  S
N482        C483   1.337       .  A
N482       Cu488   2.051       .  S
C483        C484   1.378       .  A
C483        H486   1.082       .  S
C484        C485   1.389       .  A
C484        C938   1.477       .  S
C485        H487   1.082       .  S
Cu488       N491   2.051       .  S
Cu489       N499   2.092       .  S
Cu490       N492   2.075       .  S
Cu490       N498   2.077       .  S
N491        N492   1.318       .  A
N491        C495   1.339       .  A
N492        C493   1.349       .  A
C493        C494   1.388       .  A
C493        H496   1.082       .  S
C494        C495   1.381       .  A
C494        C952   1.478       .  S
C495        H497   1.081       .  S
N498        N499   1.325       .  A
N498        C502   1.342       .  A
N499        C500   1.348       .  A
C500        C501   1.388       .  A
C500        H503   1.082       .  S
C501        C502   1.384       .  A
C501       C1263   1.488       .  S
C502        H504   1.081       .  S
N505        N506   1.321       .  A
N505        C509   1.351       .  A
N505       Cu513   2.084       .  S
N506        C507   1.338       .  A
N506       Cu512   2.058       .  S
C507        C508   1.381       .  A
C507        H510   1.082       .  S
C508        C509   1.390       .  A
C508        C924   1.482       .  S
C509        H511   1.082       .  S
Cu512       N515   2.059       .  S
Cu513       N523   2.087       .  S
Cu514       N516   2.071       .  S
Cu514       N522   2.073       .  S
N515        N516   1.318       .  A
N515        C519   1.340       .  A
N516        C517   1.348       .  A
C517        C518   1.390       .  A
C517        H520   1.080       .  S
C518        C519   1.384       .  A
C518        C955   1.483       .  S
C519        H521   1.082       .  S
N522        N523   1.324       .  A
N522        C526   1.341       .  A
N523        C524   1.347       .  A
C524        C525   1.388       .  A
C524        H527   1.082       .  S
C525        C526   1.385       .  A
C525       C1344   1.487       .  S
C526        H528   1.081       .  S
N529        N530   1.321       .  A
N529        C533   1.351       .  A
N529       Cu537   2.083       .  S
N530        C531   1.338       .  A
N530       Cu536   2.055       .  S
C531        C532   1.379       .  A
C531        H534   1.082       .  S
C532        C533   1.389       .  A
C532        C941   1.477       .  S
C533        H535   1.082       .  S
Cu536       N539   2.055       .  S
Cu537       N547   2.086       .  S
Cu538       N540   2.078       .  S
Cu538       N546   2.081       .  S
N539        N540   1.319       .  A
N539        C543   1.339       .  A
N540        C541   1.349       .  A
C541        C542   1.388       .  A
C541        H544   1.082       .  S
C542        C543   1.382       .  A
C542        C910   1.481       .  S
C543        H545   1.082       .  S
N546        N547   1.326       .  A
N546        C550   1.345       .  A
N547        C548   1.346       .  A
C548        C549   1.382       .  A
C548        H551   1.082       .  S
C549        C550   1.382       .  A
C549        C997   1.477       .  S
C550        H552   1.082       .  S
N553        N554   1.321       .  A
N553        C557   1.352       .  A
N553       Cu561   2.089       .  S
N554        C555   1.336       .  A
N554       Cu560   2.050       .  S
C555        C556   1.379       .  A
C555        H558   1.082       .  S
C556        C557   1.391       .  A
C556        C927   1.481       .  S
C557        H559   1.082       .  S
Cu560       N563   2.050       .  S
Cu561       N571   2.091       .  S
Cu562       N564   2.075       .  S
Cu562       N570   2.077       .  S
N563        N564   1.318       .  A
N563        C567   1.339       .  A
N564        C565   1.349       .  A
C565        C566   1.390       .  A
C565        H568   1.082       .  S
C566        C567   1.382       .  A
C566        C913   1.482       .  S
C567        H569   1.082       .  S
N570        N571   1.325       .  A
N570        C574   1.342       .  A
N571        C572   1.348       .  A
C572        C573   1.387       .  A
C572        H575   1.082       .  S
C573        C574   1.384       .  A
C573        C896   1.486       .  S
C574        H576   1.081       .  S
N577        N578   1.321       .  A
N577        C581   1.352       .  A
N577       Cu585   2.085       .  S
N578        C579   1.336       .  A
N578       Cu584   2.053       .  S
C579        C580   1.379       .  A
C579        H582   1.082       .  S
C580        C581   1.391       .  A
C580        C868   1.480       .  S
C581        H583   1.081       .  S
Cu584       N587   2.052       .  S
Cu585       N595   2.087       .  S
Cu586       N588   2.076       .  S
Cu586       N594   2.078       .  S
N587        N588   1.318       .  A
N587        C591   1.340       .  A
N588        C589   1.349       .  A
C589        C590   1.389       .  A
C589        H592   1.082       .  S
C590        C591   1.383       .  A
C590        C882   1.481       .  S
C591        H593   1.080       .  S
N594        N595   1.324       .  A
N594        C598   1.341       .  A
N595        C596   1.348       .  A
C596        C597   1.390       .  A
C596        H599   1.081       .  S
C597        C598   1.386       .  A
C597        C969   1.491       .  S
C598        H600   1.081       .  S
N601        N602   1.321       .  A
N601        C605   1.351       .  A
N601       Cu609   2.082       .  S
N602        C603   1.339       .  A
N602       Cu608   2.057       .  S
C603        C604   1.379       .  A
C603        H606   1.082       .  S
C604        C605   1.388       .  A
C604        C854   1.477       .  S
C605        H607   1.082       .  S
Cu608       N611   2.057       .  S
Cu609       N619   2.084       .  S
Cu610       N612   2.078       .  S
Cu610       N618   2.080       .  S
N611        N612   1.319       .  A
N611        C615   1.340       .  A
N612        C613   1.349       .  A
C613        C614   1.389       .  A
C613        H616   1.081       .  S
C614        C615   1.381       .  A
C614        C885   1.479       .  S
C615        H617   1.082       .  S
N618        N619   1.326       .  A
N618        C622   1.344       .  A
N619        C620   1.347       .  A
C620        C621   1.383       .  A
C620        H623   1.082       .  S
C621        C622   1.380       .  A
C621        C840   1.475       .  S
C622        H624   1.082       .  S
N625        N626   1.322       .  A
N625        C629   1.350       .  A
N625       Cu633   2.079       .  S
N626        C627   1.339       .  A
N626       Cu632   2.061       .  S
C627        C628   1.379       .  A
C627        H630   1.082       .  S
C628        C629   1.385       .  A
C628        C871   1.473       .  S
C629        H631   1.082       .  S
Cu632       N635   2.061       .  S
Cu633       N643   2.081       .  S
Cu634       N636   2.074       .  S
Cu634       N642   2.076       .  S
N635        N636   1.320       .  A
N635        C639   1.341       .  A
N636        C637   1.348       .  A
C637        C638   1.387       .  A
C637        H640   1.082       .  S
C638        C639   1.382       .  A
C638        C829   1.478       .  S
C639        H641   1.082       .  S
N642        N643   1.325       .  A
N642        C646   1.343       .  A
N643        C644   1.347       .  A
C644        C645   1.383       .  A
C644        H647   1.082       .  S
C645        C646   1.379       .  A
C645       C1221   1.473       .  S
C646        H648   1.082       .  S
N649        N650   1.321       .  A
N649        C653   1.351       .  A
N649       Cu657   2.085       .  S
N650        C651   1.338       .  A
N650       Cu656   2.055       .  S
C651        C652   1.379       .  A
C651        H654   1.082       .  S
C652        C653   1.388       .  A
C652        C857   1.477       .  S
C653        H655   1.082       .  S
Cu656       N659   2.055       .  S
Cu657       N667   2.087       .  S
Cu658       N660   2.078       .  S
Cu658       N666   2.080       .  S
N659        N660   1.319       .  A
N659        C663   1.339       .  A
N660        C661   1.349       .  A
C661        C662   1.390       .  A
C661        H664   1.082       .  S
C662        C663   1.383       .  A
C662        C826   1.484       .  S
C663        H665   1.082       .  S
N666        N667   1.326       .  A
N666        C670   1.344       .  A
N667        C668   1.347       .  A
C668        C669   1.384       .  A
C668        H671   1.082       .  S
C669        C670   1.382       .  A
C669       C1375   1.479       .  S
C670        H672   1.082       .  S
N673        N674   1.322       .  A
N673        C677   1.350       .  A
N673       Cu681   2.083       .  S
N674        C675   1.340       .  A
N674       Cu680   2.058       .  S
C675        C676   1.377       .  A
C675        H678   1.082       .  S
C676        C677   1.386       .  A
C676        C798   1.471       .  S
C677        H679   1.082       .  S
Cu680       N683   2.058       .  S
Cu681       N691   2.084       .  S
Cu682       N684   2.077       .  S
Cu682       N690   2.079       .  S
N683        N684   1.320       .  A
N683        C687   1.340       .  A
N684        C685   1.349       .  A
C685        C686   1.388       .  A
C685        H688   1.082       .  S
C686        C687   1.383       .  A
C686        C812   1.481       .  S
C687        H689   1.082       .  S
N690        N691   1.325       .  A
N690        C694   1.343       .  A
N691        C692   1.348       .  A
C692        C693   1.385       .  A
C692        H695   1.082       .  S
C693        C694   1.382       .  A
C693       C1053   1.480       .  S
C694        H696   1.082       .  S
N697        N698   1.322       .  A
N697        C701   1.350       .  A
N697       Cu705   2.081       .  S
N698        C699   1.340       .  A
N698       Cu704   2.059       .  S
C699        C700   1.378       .  A
C699        H702   1.082       .  S
C700        C701   1.386       .  A
C700        C784   1.473       .  S
C701        H703   1.082       .  S
Cu704       N707   2.058       .  S
Cu705       N715   2.082       .  S
Cu706       N708   2.078       .  S
Cu706       N714   2.080       .  S
N707        N708   1.319       .  A
N707        C711   1.340       .  A
N708        C709   1.349       .  A
C709        C710   1.389       .  A
C709        H712   1.082       .  S
C710        C711   1.382       .  A
C710        C815   1.482       .  S
C711        H713   1.082       .  S
N714        N715   1.324       .  A
N714        C718   1.343       .  A
N715        C716   1.346       .  A
C716        C717   1.387       .  A
C716        H719   1.079       .  S
C717        C718   1.385       .  A
C717        C899   1.485       .  S
C718        H720   1.082       .  S
N721        N722   1.322       .  A
N721        C725   1.349       .  A
N721       Cu729   2.080       .  S
N722        C723   1.340       .  A
N722       Cu728   2.061       .  S
C723        C724   1.378       .  A
C723        H726   1.082       .  S
C724        C725   1.384       .  A
C724        C801   1.471       .  S
C725        H727   1.082       .  S
Cu728       N731   2.061       .  S
Cu729       N739   2.082       .  S
Cu730       N732   2.075       .  S
Cu730       N738   2.076       .  S
N731        N732   1.320       .  A
N731        C735   1.341       .  A
N732        C733   1.348       .  A
C733        C734   1.386       .  A
C733        H736   1.082       .  S
C734        C735   1.382       .  A
C734        C770   1.477       .  S
C735        H737   1.082       .  S
N738        N739   1.325       .  A
N738        C742   1.343       .  A
N739        C740   1.347       .  A
C740        C741   1.381       .  A
C740        H743   1.082       .  S
C741        C742   1.379       .  A
C741       C1151   1.471       .  S
C742        H744   1.082       .  S
N745        N746   1.322       .  A
N745        C749   1.350       .  A
N745       Cu753   2.082       .  S
N746        C747   1.340       .  A
N746       Cu752   2.060       .  S
C747        C748   1.378       .  A
C747        H750   1.082       .  S
C748        C749   1.385       .  A
C748        C787   1.472       .  S
C749        H751   1.082       .  S
Cu752       N755   2.060       .  S
Cu753       N763   2.084       .  S
Cu754       N756   2.074       .  S
Cu754       N762   2.076       .  S
N755        N756   1.320       .  A
N755        C759   1.341       .  A
N756        C757   1.348       .  A
C757        C758   1.387       .  A
C757        H760   1.082       .  S
C758        C759   1.381       .  A
C758        C773   1.477       .  S
C759        H761   1.082       .  S
N762        N763   1.325       .  A
N762        C766   1.343       .  A
N763        C764   1.347       .  A
C764        C765   1.385       .  A
C764        H767   1.082       .  S
C765        C766   1.380       .  A
C765        C843   1.477       .  S
C766        H768   1.082       .  S
C769        C770   1.403       .  A
C769        C774   1.405       .  A
C769        H776   1.084       .  S
C770        C771   1.416       .  A
C771        C772   1.398       .  A
C771        N778   1.440       .  S
C772        C773   1.402       .  A
C772        H777   1.084       .  S
C773        C774   1.419       .  A
C774        N775   1.439       .  S
N775        H779   1.046       .  S
N775        H780   1.041       .  S
N778        H781   1.043       .  S
N778        H782   1.046       .  S
C783        C784   1.401       .  A
C783        C788   1.398       .  A
C783        H790   1.084       .  S
C784        C785   1.416       .  A
C785        C786   1.404       .  A
C785        N792   1.438       .  S
C786        C787   1.402       .  A
C786        H791   1.084       .  S
C787        C788   1.415       .  A
C788        N789   1.439       .  S
N789        H793   1.046       .  S
N789        H794   1.043       .  S
N792        H795   1.043       .  S
N792        H796   1.046       .  S
C797        C798   1.401       .  A
C797        C802   1.399       .  A
C797        H804   1.084       .  S
C798        C799   1.416       .  A
C799        C800   1.403       .  A
C799        N806   1.438       .  S
C800        C801   1.402       .  A
C800        H805   1.084       .  S
C801        C802   1.414       .  A
C802        N803   1.439       .  S
N803        H807   1.046       .  S
N803        H808   1.043       .  S
N806        H809   1.043       .  S
N806        H810   1.046       .  S
C811        C812   1.403       .  A
C811        C816   1.407       .  A
C811        H818   1.084       .  S
C812        C813   1.410       .  A
C813        C814   1.401       .  A
C813        N820   1.438       .  S
C814        C815   1.404       .  A
C814        H819   1.084       .  S
C815        C816   1.421       .  A
C816        N817   1.439       .  S
N817        H821   1.046       .  S
N817        H822   1.040       .  S
N820        H823   1.046       .  S
N820        H824   1.046       .  S
C825        C826   1.405       .  A
C825        C830   1.406   1_455  A
C825        H832   1.084       .  S
C826        C827   1.412       .  A
C827        C828   1.401   1_455  A
C827        N834   1.438       .  S
C828        C829   1.402       .  A
C828        H833   1.084       .  S
C829        C830   1.418       .  A
C830        N831   1.439       .  S
N831        H835   1.046       .  S
N831        H836   1.042       .  S
N834        H837   1.046       .  S
N834        H838   1.046       .  S
C839        C840   1.402       .  A
C839        C844   1.402       .  A
C839        H846   1.084       .  S
C840        C841   1.416       .  A
C841        C842   1.400       .  A
C841        N848   1.438       .  S
C842        C843   1.403       .  A
C842        H847   1.084       .  S
C843        C844   1.418       .  A
C844        N845   1.439       .  S
N845        H849   1.046       .  S
N845        H850   1.041       .  S
N848        H851   1.042       .  S
N848        H852   1.045       .  S
C853        C854   1.402   1_554  A
C853        C858   1.393       .  A
C853        H860   1.085       .  S
C854        C855   1.419       .  A
C855        C856   1.407   1_556  A
C855        N862   1.437       .  S
C856        C857   1.403       .  A
C856        H861   1.084       .  S
C857        C858   1.413       .  A
C858        N859   1.433       .  S
N859        H863   1.043       .  S
N859        H864   1.045       .  S
N862        H865   1.042       .  S
N862        H866   1.046       .  S
C867        C868   1.403       .  A
C867        C872   1.393   1_556  A
C867        H874   1.084       .  S
C868        C869   1.415   1_556  A
C869        C870   1.405       .  A
C869        N876   1.431       .  S
C870        C871   1.403       .  A
C870        H875   1.084       .  S
C871        C872   1.411       .  A
C872        N873   1.433   1_554  S
N873        H877   1.043   1_556  S
N873        H878   1.045   1_556  S
N876        H879   1.045       .  S
N876        H880   1.044   1_554  S
C881        C882   1.405       .  A
C881        C886   1.403   1_655  A
C881        H888   1.084       .  S
C882        C883   1.416       .  A
C883        C884   1.395   1_655  A
C883        N890   1.433       .  S
C884        C885   1.402       .  A
C884        H889   1.084       .  S
C885        C886   1.414       .  A
C886        N887   1.432       .  S
N887        H891   1.044       .  S
N887        H892   1.045       .  S
N890        H893   1.045       .  S
N890        H894   1.042       .  S
C895        C896   1.405       .  A
C895        C900   1.401       .  A
C895        H902   1.083       .  S
C896        C897   1.414       .  A
C897        C898   1.403       .  A
C897        N904   1.438       .  S
C898        C899   1.403       .  A
C898        H903   1.083       .  S
C899        C900   1.416       .  A
C900        N901   1.432       .  S
N901        H905   1.043       .  S
N901        H906   1.045       .  S
N904        H907   1.046       .  S
N904        H908   1.046       .  S
C909        C910   1.403       .  A
C909        C914   1.407       .  A
C909        H916   1.084       .  S
C910        C911   1.410       .  A
C911        C912   1.400       .  A
C911        N918   1.438       .  S
C912        C913   1.403       .  A
C912        H917   1.084       .  S
C913        C914   1.421       .  A
C914        N915   1.439       .  S
N915        H919   1.046       .  S
N915        H920   1.040       .  S
N918        H921   1.045       .  S
N918        H922   1.046       .  S
C923        C924   1.403       .  A
C923        C928   1.398       .  A
C923        H930   1.084       .  S
C924        C925   1.421       .  A
C925        C926   1.409       .  A
C925        N932   1.438       .  S
C926        C927   1.404       .  A
C926        H931   1.084       .  S
C927        C928   1.411       .  A
C928        N929   1.439       .  S
N929        H933   1.046       .  S
N929        H934   1.045       .  S
N932        H935   1.041       .  S
N932        H936   1.046       .  S
C937        C938   1.403       .  A
C937        C942   1.407       .  A
C937        H944   1.084       .  S
C938        C939   1.413       .  A
C939        C940   1.393       .  A
C939        N946   1.434       .  S
C940        C941   1.402       .  A
C940        H945   1.085       .  S
C941        C942   1.419       .  A
C942        N943   1.437       .  S
N943        H947   1.046       .  S
N943        H948   1.042       .  S
N946        H949   1.045       .  S
N946        H950   1.043       .  S
C951        C952   1.404       .  A
C951        C956   1.403       .  A
C951        H958   1.084       .  S
C952        C953   1.414       .  A
C953        C954   1.394       .  A
C953        N960   1.433       .  S
C954        C955   1.403       .  A
C954        H959   1.084       .  S
C955        C956   1.417       .  A
C956        N957   1.431       .  S
N957        H961   1.044       .  S
N957        H962   1.045       .  S
N960        H963   1.045       .  S
N960        H964   1.042       .  S
C965        C966   1.404       .  A
C965        C970   1.410       .  A
C965        H972   1.084       .  S
C966        C967   1.414       .  A
C967        C968   1.394       .  A
C967        N974   1.433       .  S
C968        C969   1.405       .  A
C968        H973   1.082       .  S
C969        C970   1.416       .  A
C970        N971   1.437       .  S
N971        H975   1.046       .  S
N971        H976   1.046       .  S
N974        H977   1.045       .  S
N974        H978   1.042       .  S
C979        C980   1.402       .  A
C979        C984   1.398       .  A
C979        H986   1.081       .  S
C980        C981   1.417       .  A
C981        C982   1.406       .  A
C981        N988   1.430       .  S
C982        C983   1.411       .  A
C982        H987   1.081       .  S
C983        C984   1.421       .  A
C984        N985   1.435       .  S
N985        H989   1.046       .  S
N985        H990   1.046       .  S
N988        H991   1.045       .  S
N988        H992   1.044       .  S
C993        C994   1.402       .  A
C993        C998   1.401       .  A
C993       H1000   1.084       .  S
C994        C995   1.417       .  A
C995        C996   1.402       .  A
C995       N1002   1.439       .  S
C996        C997   1.402       .  A
C996       H1001   1.084       .  S
C997        C998   1.417       .  A
C998        N999   1.438       .  S
N999       H1003   1.045       .  S
N999       H1004   1.042       .  S
N1002      H1005   1.042       .  S
N1002      H1006   1.046       .  S
C1007      C1008   1.400       .  A
C1007      C1012   1.396       .  A
C1007      H1014   1.085       .  S
C1008      C1009   1.418       .  A
C1009      C1010   1.408       .  A
C1009      N1016   1.438       .  S
C1010      C1011   1.405       .  A
C1010      H1015   1.084       .  S
C1011      C1012   1.417       .  A
C1012      N1013   1.440       .  S
N1013      H1017   1.046       .  S
N1013      H1018   1.043       .  S
N1016      H1019   1.042       .  S
N1016      H1020   1.046       .  S
C1021      C1022   1.401       .  A
C1021      C1026   1.398       .  A
C1021      H1028   1.084       .  S
C1022      C1023   1.417       .  A
C1023      C1024   1.406       .  A
C1023      N1030   1.438       .  S
C1024      C1025   1.403       .  A
C1024      H1029   1.084       .  S
C1025      C1026   1.416       .  A
C1026      N1027   1.440       .  S
N1027      H1031   1.046       .  S
N1027      H1032   1.043       .  S
N1030      H1033   1.042       .  S
N1030      H1034   1.046       .  S
C1035      C1036   1.403       .  A
C1035      C1040   1.398       .  A
C1035      H1042   1.084       .  S
C1036      C1037   1.419       .  A
C1037      C1038   1.406       .  A
C1037      N1044   1.439       .  S
C1038      C1039   1.404       .  A
C1038      H1043   1.084       .  S
C1039      C1040   1.416       .  A
C1040      N1041   1.440       .  S
N1041      H1045   1.046       .  S
N1041      H1046   1.042       .  S
N1044      H1047   1.041       .  S
N1044      H1048   1.046       .  S
C1049      C1050   1.412       .  A
C1049      C1054   1.405       .  A
C1049      H1056   1.080       .  S
C1050      C1051   1.422       .  A
C1051      C1052   1.404       .  A
C1051      N1058   1.435       .  S
C1052      C1053   1.398       .  A
C1052      H1057   1.084       .  S
C1053      C1054   1.415       .  A
C1054      N1055   1.439       .  S
N1055      H1059   1.046       .  S
N1055      H1060   1.041       .  S
N1058      H1061   1.046       .  S
N1058      H1062   1.046       .  S
C1063      C1064   1.403       .  A
C1063      C1068   1.402       .  A
C1063      H1070   1.084       .  S
C1064      C1065   1.417       .  A
C1065      C1066   1.400       .  A
C1065      N1072   1.438       .  S
C1066      C1067   1.401       .  A
C1066      H1071   1.084       .  S
C1067      C1068   1.417       .  A
C1068      N1069   1.439       .  S
N1069      H1073   1.046       .  S
N1069      H1074   1.042       .  S
N1072      H1075   1.042       .  S
N1072      H1076   1.045       .  S
C1077      C1078   1.401       .  A
C1077      C1082   1.398       .  A
C1077      H1084   1.084       .  S
C1078      C1079   1.417       .  A
C1079      C1080   1.404       .  A
C1079      N1086   1.438       .  S
C1080      C1081   1.403       .  A
C1080      H1085   1.084       .  S
C1081      C1082   1.414       .  A
C1082      N1083   1.438       .  S
N1083      H1087   1.045       .  S
N1083      H1088   1.043       .  S
N1086      H1089   1.042       .  S
N1086      H1090   1.045       .  S
C1091      C1092   1.403   1_545  A
C1091      C1096   1.394       .  A
C1091      H1098   1.084       .  S
C1092      C1093   1.420       .  A
C1093      C1094   1.407       .  A
C1093      N1100   1.437       .  S
C1094      C1095   1.403   1_565  A
C1094      H1099   1.084       .  S
C1095      C1096   1.412       .  A
C1096      N1097   1.434       .  S
N1097      H1101   1.043       .  S
N1097      H1102   1.045       .  S
N1100      H1103   1.041       .  S
N1100      H1104   1.046       .  S
C1105      C1106   1.403       .  A
C1105      C1110   1.408   1_565  A
C1105      H1112   1.084       .  S
C1106      C1107   1.410   1_565  A
C1107      C1108   1.399       .  A
C1107      N1114   1.438       .  S
C1108      C1109   1.403       .  A
C1108      H1113   1.084       .  S
C1109      C1110   1.421       .  A
C1110      N1111   1.438   1_545  S
N1111      H1115   1.046       .  S
N1111      H1116   1.041   1_565  S
N1114      H1117   1.045       .  S
N1114      H1118   1.046       .  S
C1119      C1120   1.403       .  A
C1119      C1124   1.403       .  A
C1119      H1126   1.084       .  S
C1120      C1121   1.413       .  A
C1121      C1122   1.395       .  A
C1121      N1128   1.433       .  S
C1122      C1123   1.403       .  A
C1122      H1127   1.084       .  S
C1123      C1124   1.415       .  A
C1124      N1125   1.432       .  S
N1125      H1129   1.044       .  S
N1125      H1130   1.045       .  S
N1128      H1131   1.046       .  S
N1128      H1132   1.043       .  S
C1133      C1134   1.404       .  A
C1133      C1138   1.412   1_655  A
C1133      H1140   1.083       .  S
C1134      C1135   1.412       .  A
C1135      C1136   1.398   1_655  A
C1135      N1142   1.439       .  S
C1136      C1137   1.403       .  A
C1136      H1141   1.083       .  S
C1137      C1138   1.415       .  A
C1138      N1139   1.436       .  S
N1139      H1143   1.046       .  S
N1139      H1144   1.045       .  S
N1142      H1145   1.045       .  S
N1142      H1146   1.046       .  S
C1147      C1148   1.407       .  A
C1147      C1152   1.399       .  A
C1147      H1154   1.082       .  S
C1148      C1149   1.417       .  A
C1149      C1150   1.408       .  A
C1149      N1156   1.437       .  S
C1150      C1151   1.400       .  A
C1150      H1155   1.084       .  S
C1151      C1152   1.412       .  A
C1152      N1153   1.440       .  S
N1153      H1157   1.046       .  S
N1153      H1158   1.043       .  S
N1156      H1159   1.046       .  S
N1156      H1160   1.046       .  S
C1161      C1162   1.402   1_554  A
C1161      C1166   1.398       .  A
C1161      H1168   1.084       .  S
C1162      C1163   1.420       .  A
C1163      C1164   1.408   1_546  A
C1163      N1170   1.438   1_545  S
C1164      C1165   1.404       .  A
C1164      H1169   1.084       .  S
C1165      C1166   1.411   1_565  A
C1166      N1167   1.439       .  S
N1167      H1171   1.046       .  S
N1167      H1172   1.045       .  S
N1170      H1173   1.041   1_565  S
N1170      H1174   1.046       .  S
C1175      C1176   1.409       .  A
C1175      C1180   1.397       .  A
C1175      H1182   1.080       .  S
C1176      C1177   1.420       .  A
C1177      C1178   1.409       .  A
C1177      N1184   1.436       .  S
C1178      C1179   1.401       .  A
C1178      H1183   1.084       .  S
C1179      C1180   1.413       .  A
C1180      N1181   1.438       .  S
N1181      H1185   1.045       .  S
N1181      H1186   1.043       .  S
N1184      H1187   1.046       .  S
N1184      H1188   1.046       .  S
C1189      C1190   1.399   1_554  A
C1189      C1194   1.394       .  A
C1189      H1196   1.084       .  S
C1190      C1191   1.414       .  A
C1191      C1192   1.407   1_546  A
C1191      N1198   1.431   1_545  S
C1192      C1193   1.407       .  A
C1192      H1197   1.083       .  S
C1193      C1194   1.413   1_565  A
C1194      N1195   1.433       .  S
N1195      H1199   1.045       .  S
N1195      H1200   1.046       .  S
N1198      H1201   1.045       .  S
N1198      H1202   1.045   1_565  S
C1203      C1204   1.402       .  A
C1203      C1208   1.396   1_655  A
C1203      H1210   1.084       .  S
C1204      C1205   1.419       .  A
C1205      C1206   1.406   1_655  A
C1205      N1212   1.438       .  S
C1206      C1207   1.404       .  A
C1206      H1211   1.084       .  S
C1207      C1208   1.416       .  A
C1208      N1209   1.437       .  S
N1209      H1213   1.045       .  S
N1209      H1214   1.043       .  S
N1212      H1215   1.041       .  S
N1212      H1216   1.045       .  S
C1217      C1218   1.404       .  A
C1217      C1222   1.400       .  A
C1217      H1224   1.084       .  S
C1218      C1219   1.419       .  A
C1219      C1220   1.401       .  A
C1219      N1226   1.440       .  S
C1220      C1221   1.402       .  A
C1220      H1225   1.084       .  S
C1221      C1222   1.415       .  A
C1222      N1223   1.438       .  S
N1223      H1227   1.045       .  S
N1223      H1228   1.042       .  S
N1226      H1229   1.040       .  S
N1226      H1230   1.046       .  S
C1231      C1232   1.400       .  A
C1231      C1236   1.408       .  A
C1231      H1238   1.084       .  S
C1232      C1233   1.413       .  A
C1233      C1234   1.398       .  A
C1233      N1240   1.440       .  S
C1234      C1235   1.408       .  A
C1234      H1239   1.082       .  S
C1235      C1236   1.418       .  A
C1236      N1237   1.436       .  S
N1237      H1241   1.046       .  S
N1237      H1242   1.046       .  S
N1240      H1243   1.042       .  S
N1240      H1244   1.046       .  S
C1245      C1246   1.404       .  A
C1245      C1250   1.398       .  A
C1245      H1252   1.084       .  S
C1246      C1247   1.418       .  A
C1247      C1248   1.404       .  A
C1247      N1254   1.431       .  S
C1248      C1249   1.404       .  A
C1248      H1253   1.084       .  S
C1249      C1250   1.409       .  A
C1250      N1251   1.433       .  S
N1251      H1255   1.046       .  S
N1251      H1256   1.046       .  S
N1254      H1257   1.045       .  S
N1254      H1258   1.043       .  S
C1259      C1260   1.404       .  A
C1259      C1264   1.403       .  A
C1259      H1266   1.083       .  S
C1260      C1261   1.418       .  A
C1261      C1262   1.402       .  A
C1261      N1268   1.432       .  S
C1262      C1263   1.405       .  A
C1262      H1267   1.083       .  S
C1263      C1264   1.414       .  A
C1264      N1265   1.438       .  S
N1265      H1269   1.046       .  S
N1265      H1270   1.046       .  S
N1268      H1271   1.045       .  S
N1268      H1272   1.042       .  S
C1273      C1274   1.403       .  A
C1273      C1278   1.405       .  A
C1273      H1280   1.084       .  S
C1274      C1275   1.415       .  A
C1275      C1276   1.397       .  A
C1275      N1282   1.440       .  S
C1276      C1277   1.401       .  A
C1276      H1281   1.085       .  S
C1277      C1278   1.417       .  A
C1278      N1279   1.438       .  S
N1279      H1283   1.046       .  S
N1279      H1284   1.042       .  S
N1282      H1285   1.043       .  S
N1282      H1286   1.046       .  S
C1287      C1288   1.405       .  A
C1287      C1292   1.404       .  A
C1287      H1294   1.083       .  S
C1288      C1289   1.415       .  A
C1289      C1290   1.403       .  A
C1289      N1296   1.438       .  S
C1290      C1291   1.403       .  A
C1290      H1295   1.084       .  S
C1291      C1292   1.418       .  A
C1292      N1293   1.437       .  S
N1293      H1297   1.045       .  S
N1293      H1298   1.042       .  S
N1296      H1299   1.046       .  S
N1296      H1300   1.046       .  S
C1301      C1302   1.403       .  A
C1301      C1306   1.405       .  A
C1301      H1308   1.084       .  S
C1302      C1303   1.414       .  A
C1303      C1304   1.397       .  A
C1303      N1310   1.439       .  S
C1304      C1305   1.402       .  A
C1304      H1309   1.085       .  S
C1305      C1306   1.418       .  A
C1306      N1307   1.438       .  S
N1307      H1311   1.046       .  S
N1307      H1312   1.042       .  S
N1310      H1313   1.043       .  S
N1310      H1314   1.046       .  S
C1315      C1316   1.403       .  A
C1315      C1320   1.396       .  A
C1315      H1322   1.084       .  S
C1316      C1317   1.419       .  A
C1317      C1318   1.406       .  A
C1317      N1324   1.438       .  S
C1318      C1319   1.404       .  A
C1318      H1323   1.084       .  S
C1319      C1320   1.415       .  A
C1320      N1321   1.438       .  S
N1321      H1325   1.045       .  S
N1321      H1326   1.043       .  S
N1324      H1327   1.041       .  S
N1324      H1328   1.045       .  S
C1329      C1330   1.403       .  A
C1329      C1334   1.403       .  A
C1329      H1336   1.083       .  S
C1330      C1331   1.415       .  A
C1331      C1332   1.401       .  A
C1331      N1338   1.432       .  S
C1332      C1333   1.405       .  A
C1332      H1337   1.083       .  S
C1333      C1334   1.414       .  A
C1334      N1335   1.438       .  S
N1335      H1339   1.046       .  S
N1335      H1340   1.046       .  S
N1338      H1341   1.046       .  S
N1338      H1342   1.043       .  S
C1343      C1344   1.405       .  A
C1343      C1348   1.401       .  A
C1343      H1350   1.083       .  S
C1344      C1345   1.415       .  A
C1345      C1346   1.403       .  A
C1345      N1352   1.438       .  S
C1346      C1347   1.403       .  A
C1346      H1351   1.083       .  S
C1347      C1348   1.416       .  A
C1348      N1349   1.432       .  S
N1349      H1353   1.042       .  S
N1349      H1354   1.046       .  S
N1352      H1355   1.046       .  S
N1352      H1356   1.046       .  S
C1357      C1358   1.404       .  A
C1357      C1362   1.400       .  A
C1357      H1364   1.084       .  S
C1358      C1359   1.421       .  A
C1359      C1360   1.406       .  A
C1359      N1366   1.439       .  S
C1360      C1361   1.403       .  A
C1360      H1365   1.084       .  S
C1361      C1362   1.410       .  A
C1362      N1363   1.438       .  S
N1363      H1367   1.046       .  S
N1363      H1368   1.045       .  S
N1366      H1369   1.040       .  S
N1366      H1370   1.046       .  S
C1371      C1372   1.401       .  A
C1371      C1376   1.402       .  A
C1371      H1378   1.084       .  S
C1372      C1373   1.415       .  A
C1373      C1374   1.401       .  A
C1373      N1380   1.438       .  S
C1374      C1375   1.404       .  A
C1374      H1379   1.084       .  S
C1375      C1376   1.419       .  A
C1376      N1377   1.440       .  S
N1377      H1381   1.046       .  S
N1377      H1382   1.042       .  S
N1380      H1383   1.043       .  S
N1380      H1384   1.045       .  S
C1385      C1386   1.402       .  A
C1385      C1390   1.407       .  A
C1385      H1392   1.084       .  S
C1386      C1387   1.411       .  A
C1387      C1388   1.392       .  A
C1387      N1394   1.434       .  S
C1388      C1389   1.403       .  A
C1388      H1393   1.085       .  S
C1389      C1390   1.420       .  A
C1390      N1391   1.437       .  S
N1391      H1395   1.045       .  S
N1391      H1396   1.041       .  S
N1394      H1397   1.045       .  S
N1394      H1398   1.043       .  S
C1399      C1400   1.403       .  A
C1399      C1404   1.403       .  A
C1399      H1406   1.083       .  S
C1400      C1401   1.417       .  A
C1401      C1402   1.403       .  A
C1401      N1408   1.436       .  S
C1402      C1403   1.407       .  A
C1402      H1407   1.083       .  S
C1403      C1404   1.415       .  A
C1404      N1405   1.437       .  S
N1405      H1409   1.046       .  S
N1405      H1410   1.046       .  S
N1408      H1411   1.042       .  S
N1408      H1412   1.045       .  S
C1413      C1414   1.403       .  A
C1413      C1418   1.406       .  A
C1413      H1420   1.084       .  S
C1414      C1415   1.415       .  A
C1415      C1416   1.397       .  A
C1415      N1422   1.439       .  S
C1416      C1417   1.400       .  A
C1416      H1421   1.085       .  S
C1417      C1418   1.417       .  A
C1418      N1419   1.438       .  S
N1419      H1423   1.046       .  S
N1419      H1424   1.043       .  S
N1422      H1425   1.043       .  S
N1422      H1426   1.046       .  S
C1427      C1428   1.403       .  A
C1427      C1432   1.405       .  A
C1427      H1434   1.084       .  S
C1428      C1429   1.410       .  A
C1429      C1430   1.401       .  A
C1429      N1436   1.439       .  S
C1430      C1431   1.408       .  A
C1430      H1435   1.081       .  S
C1431      C1432   1.421       .  A
C1432      N1433   1.430       .  S
N1433      H1437   1.045       .  S
N1433      H1438   1.044       .  S
N1436      H1439   1.045       .  S
N1436      H1440   1.046       .  S
