geometry optimzed in LAMMPS
_audit_creation_date              2020-11-30 
_audit_creation_method            'lammps2cif' 
_symmetry_space_group_name_H-M    'P1' 
_symmetry_Int_Tables_number       1 
_symmetry_cell_setting            triclinic 
loop_ 
_symmetry_equiv_pos_as_xyz 
  x,y,z 
_cell_length_a                    105.52164111 
_cell_length_b                    105.76015414828649 
_cell_length_c                    98.401130903167 
_cell_angle_alpha                 90.00277245332921 
_cell_angle_beta                  89.90064563955043 
_cell_angle_gamma                 89.9755642625523 
loop_ 
_atom_site_label 
_atom_site_type_symbol 
_atom_site_fract_x 
_atom_site_fract_y 
_atom_site_fract_z 
_atom_site_charge 
N1          N  0.18548032  0.85080525  0.22559918    -0.26800
N2          N  0.18175475  0.84020409  0.23150025    -0.34600
C3          C  0.18693057  0.83939005  0.24388632     0.01600
C4          C  0.19444316  0.84986580  0.24597382     0.07600
C5          C  0.19333962  0.85698754  0.23417042    -0.05500
H6          H  0.18579666  0.83139973  0.25062844     0.08300
H7          H  0.19802974  0.86583523  0.23189749     0.09500
Cu8        Cu  0.17165052  0.82595089  0.22216728     0.44200
Cu9        Cu  0.17924661  0.85573892  0.20615130     0.42000
Cu10       Cu  0.16308598  0.82929181  0.18808999     0.43900
N11         N  0.16603400  0.81072180  0.21053573    -0.34100
N12         N  0.16326143  0.81173848  0.19751228    -0.28400
C13         C  0.16094384  0.80011508  0.19246126    -0.04500
C14         C  0.16235392  0.79142864  0.20291528     0.07700
C15         C  0.16556369  0.79850194  0.21419774     0.01500
H16         H  0.15851618  0.79815093  0.18199291     0.09200
H17         H  0.16769657  0.79500377  0.22425586     0.08200
N18         N  0.16223945  0.84823660  0.18257045    -0.35600
N19         N  0.16827159  0.85768954  0.18858966    -0.27800
C20         C  0.16476570  0.86863056  0.18262355    -0.03000
C21         C  0.15600499  0.86589424  0.17258076     0.05600
C22         C  0.15464625  0.85292820  0.17285822     0.03700
H23         H  0.16779724  0.87791640  0.18588900     0.08800
H24         H  0.14830186  0.84731126  0.16670338     0.07600
N25         N  0.18590827  0.64406974  0.21943457    -0.26800
N26         N  0.18218704  0.65409615  0.22641826    -0.34600
C27         C  0.18840314  0.65454254  0.23824929     0.01600
C28         C  0.19658239  0.64441513  0.23890083     0.07600
C29         C  0.19482003  0.63789067  0.22677525    -0.05500
H30         H  0.18726955  0.66195914  0.24572616     0.08300
H31         H  0.19958320  0.62933370  0.22357271     0.09500
Cu32       Cu  0.17009482  0.66799883  0.21959651     0.44200
Cu33       Cu  0.17792926  0.63974028  0.20045460     0.42000
Cu34       Cu  0.15812434  0.66607878  0.18676475     0.43900
N35         N  0.16238558  0.68350695  0.21002848    -0.34100
N36         N  0.15834468  0.68310071  0.19736014    -0.28400
C37         C  0.15561986  0.69496132  0.19325099    -0.04500
C38         C  0.15807272  0.70315065  0.20394081     0.07700
C39         C  0.16230779  0.69552566  0.21441136     0.01500
H40         H  0.15254052  0.69748103  0.18312223     0.09200
H41         H  0.16581651  0.69853571  0.22420854     0.08200
N42         N  0.15876826  0.64776009  0.17900776    -0.35600
N43         N  0.16597857  0.63836137  0.18344846    -0.27800
C44         C  0.16345597  0.62793040  0.17597504    -0.03000
C45         C  0.15416299  0.63094192  0.16655042     0.05600
C46         C  0.15145624  0.64353360  0.16882055     0.03700
H47         H  0.16771405  0.61875797  0.17761922     0.08800
H48         H  0.14448988  0.64921077  0.16355984     0.07600
N49         N  0.27037449  0.64051695  0.32430727    -0.26800
N50         N  0.26540115  0.65182488  0.32635683    -0.34600
C51         C  0.25492721  0.65310090  0.31881325     0.01600
C52         C  0.25318113  0.64215841  0.31139661     0.07600
C53         C  0.26318382  0.63432724  0.31507881    -0.05500
H54         H  0.24942329  0.66170495  0.31817743     0.08300
H55         H  0.26520053  0.62497768  0.31117586     0.09500
Cu56       Cu  0.27395671  0.66611718  0.33722551     0.44200
Cu57       Cu  0.28704503  0.63510417  0.33426783     0.42000
Cu58       Cu  0.30546402  0.66266620  0.34803730     0.43900
N59         N  0.28444766  0.68107120  0.34455278    -0.34100
N60         N  0.29642423  0.68014499  0.34825394    -0.28400
C61         C  0.30059084  0.69169104  0.35206013    -0.04500
C62         C  0.29067049  0.70021121  0.35061028     0.07700
C63         C  0.28063387  0.69309646  0.34581855     0.01500
H64         H  0.31008827  0.69372638  0.35557588     0.09200
H65         H  0.27123750  0.69639913  0.34324319     0.08200
N66         N  0.31014944  0.64367731  0.35044946    -0.35600
N67         N  0.30343305  0.63383884  0.34623052    -0.27800
C68         C  0.30857239  0.62321092  0.35146348    -0.03000
C69         C  0.31902705  0.62653837  0.35917687     0.05600
C70         C  0.31974695  0.63954683  0.35822601     0.03700
H71         H  0.30479059  0.61380625  0.35004227     0.08800
H72         H  0.32635028  0.64567573  0.36343090     0.07600
N73         N  0.26849114  0.84839790  0.33110306    -0.26800
N74         N  0.26371666  0.83690836  0.33241793    -0.34600
C75         C  0.25332932  0.83585214  0.32469142     0.01600
C76         C  0.25141028  0.84714894  0.31796314     0.07600
C77         C  0.26123817  0.85493942  0.32221245    -0.05500
H78         H  0.24790514  0.82724730  0.32360753     0.08300
H79         H  0.26303080  0.86456094  0.31901104     0.09500
Cu80       Cu  0.27209236  0.82227609  0.34299898     0.44200
Cu81       Cu  0.28481939  0.85383977  0.34170785     0.42000
Cu82       Cu  0.30233169  0.82666225  0.35717013     0.43900
N83         N  0.28266536  0.80743020  0.35055030    -0.34100
N84         N  0.29418099  0.80881687  0.35555084    -0.28400
C85         C  0.29884076  0.79731340  0.35878395    -0.04500
C86         C  0.28972582  0.78833359  0.35561602     0.07700
C87         C  0.27963562  0.79511205  0.35044696     0.01500
H88         H  0.30816901  0.79562248  0.36295743     0.09200
H89         H  0.27083095  0.79133326  0.34654850     0.08200
N90         N  0.30722717  0.84564726  0.35914965    -0.35600
N91         N  0.30087894  0.85541089  0.35414479    -0.27800
C92         C  0.30624527  0.86617287  0.35876161    -0.03000
C93         C  0.31648275  0.86300315  0.36687891     0.05600
C94         C  0.31682005  0.84994284  0.36682998     0.03700
H95         H  0.30282314  0.87558953  0.35655383     0.08800
H96         H  0.32322605  0.84394088  0.37247903     0.07600
N97         N  0.68853735  0.85379866  0.30361426    -0.26800
N98         N  0.68757398  0.84212753  0.29891284    -0.34600
C99         C  0.69331870  0.84130829  0.28683720     0.01600
C100        C  0.69835775  0.85294732  0.28355357     0.07600
C101        C  0.69522424  0.86072786  0.29447979    -0.05500
H102        H  0.69404600  0.83265277  0.28104597     0.08300
H103        H  0.69751843  0.87064068  0.29563147     0.09500
Cu104      Cu  0.67951012  0.82691784  0.30871389     0.44200
Cu105      Cu  0.67986435  0.85890741  0.32209911     0.42000
Cu106      Cu  0.66408696  0.83115009  0.33921760     0.43900
N107        N  0.67291948  0.81171506  0.31972684    -0.34100
N108        N  0.66715318  0.81316373  0.33151457    -0.28400
C109        C  0.66424033  0.80167832  0.33657593    -0.04500
C110        C  0.66839451  0.79261006  0.32741974     0.07700
C111        C  0.67386026  0.79934150  0.31686510     0.01500
H112        H  0.65948866  0.80005584  0.34616864     0.09200
H113        H  0.67831406  0.79556294  0.30782311     0.08200
N114        N  0.66205137  0.84999489  0.34469772    -0.35600
N115        N  0.66789681  0.85987443  0.33923664    -0.27800
C116        C  0.66396238  0.87041640  0.34576849    -0.03000
C117        C  0.65514641  0.86694915  0.35556146     0.05600
C118        C  0.65418120  0.85399840  0.35453042     0.03700
H119        H  0.66689284  0.87992361  0.34319868     0.08800
H120        H  0.64808742  0.84788110  0.36044452     0.07600
N121        N  0.69818319  0.64526586  0.31979820    -0.26800
N122        N  0.69831461  0.65726337  0.31610375    -0.34600
C123        C  0.70619386  0.65882924  0.30561958     0.01600
C124        C  0.71141612  0.64730588  0.30233197     0.07600
C125        C  0.70617053  0.63877670  0.31153656    -0.05500
H126        H  0.70783417  0.66776780  0.30058962     0.08300
H127        H  0.70781427  0.62869855  0.31201256     0.09500
Cu128      Cu  0.68762141  0.67140392  0.32449024     0.44200
Cu129      Cu  0.68619312  0.63952674  0.33561672     0.42000
Cu130      Cu  0.66598614  0.66654482  0.35016309     0.43900
N131        N  0.67713184  0.68600553  0.33223687    -0.34100
N132        N  0.66904172  0.68462544  0.34234669    -0.28400
C133        C  0.66393262  0.69604259  0.34526083    -0.04500
C134        C  0.66908206  0.70484394  0.33631622     0.07700
C135        C  0.67734928  0.69809792  0.32825076     0.01500
H136        H  0.65691502  0.69775804  0.35308158     0.09200
H137        H  0.68323318  0.70173948  0.32012513     0.08200
N138        N  0.66455702  0.64731038  0.35481132    -0.35600
N139        N  0.67178853  0.63793511  0.35024523    -0.27800
C140        C  0.66765481  0.62699329  0.35573062    -0.03000
C141        C  0.65727812  0.62959219  0.36388003     0.05600
C142        C  0.65558485  0.64249333  0.36302068     0.03700
H143        H  0.67158530  0.61777326  0.35348530     0.08800
H144        H  0.64825628  0.64801265  0.36793071     0.07600
N145        N  0.77397302  0.85262131  0.19995691    -0.26800
N146        N  0.77040981  0.84069460  0.20115037    -0.34600
C147        C  0.76037814  0.83998127  0.20947983     0.01600
C148        C  0.75749399  0.85198092  0.21401435     0.07600
C149        C  0.76632230  0.85985170  0.20782141    -0.05500
H150        H  0.75569716  0.83127776  0.21229331     0.08300
H151        H  0.76700893  0.87001546  0.20878579     0.09500
Cu152      Cu  0.77978621  0.82550515  0.19260770     0.44200
Cu153      Cu  0.78900310  0.85762621  0.18713600     0.42000
Cu154      Cu  0.80846861  0.83003820  0.17499172     0.43900
N155        N  0.79107520  0.81064219  0.18637716    -0.34100
N156        N  0.80197833  0.81209491  0.17997175    -0.28400
C157        C  0.80713009  0.80059178  0.17770562    -0.04500
C158        C  0.79899685  0.79156161  0.18305847     0.07700
C159        C  0.78896710  0.79829583  0.18843899     0.01500
H160        H  0.81608316  0.79895300  0.17261187     0.09200
H161        H  0.78073598  0.79449714  0.19358118     0.08200
N162        N  0.81121005  0.84883612  0.16957898    -0.35600
N163        N  0.80411695  0.85859083  0.17333159    -0.27800
C164        C  0.80823687  0.86899382  0.16673412    -0.03000
C165        C  0.81843321  0.86560490  0.15863040     0.05600
C166        C  0.82007105  0.85282504  0.16075299     0.03700
H167        H  0.80412098  0.87831501  0.16778280     0.08800
H168        H  0.82699073  0.84675474  0.15592008     0.07600
N169        N  0.78028518  0.64352524  0.21115150    -0.26800
N170        N  0.77546607  0.65494411  0.20949505    -0.34600
C171        C  0.76656444  0.65704865  0.21888063     0.01600
C172        C  0.76557211  0.64650988  0.22708584     0.07600
C173        C  0.77439947  0.63799437  0.22187172    -0.05500
H174        H  0.76157483  0.66590350  0.21990821     0.08300
H175        H  0.77666866  0.62873325  0.22584113     0.09500
Cu176      Cu  0.78213941  0.66861281  0.19652274     0.44200
Cu177      Cu  0.79519385  0.63745871  0.19864324     0.42000
Cu178      Cu  0.81136681  0.66504105  0.18121860     0.43900
N179        N  0.79177628  0.68382858  0.18869385    -0.34100
N180        N  0.80315105  0.68281856  0.18324663    -0.28400
C181        C  0.80754871  0.69452035  0.18042749    -0.04500
C182        C  0.79844155  0.70322635  0.18447788     0.07700
C183        C  0.78858500  0.69605821  0.18962590     0.01500
H184        H  0.81679536  0.69654857  0.17619408     0.09200
H185        H  0.77990009  0.69944895  0.19421520     0.08200
N186        N  0.81563470  0.64597142  0.17855100    -0.35600
N187        N  0.80970296  0.63616705  0.18407160    -0.27800
C188        C  0.81443556  0.62545317  0.17857870    -0.03000
C189        C  0.82385304  0.62869630  0.16940099     0.05600
C190        C  0.82435978  0.64173191  0.16970596     0.03700
H191        H  0.81123455  0.61601244  0.18106132     0.08800
H192        H  0.83030549  0.64776928  0.16353015     0.07600
N193        N  0.88502194  0.05407425  0.97086122    -0.26800
N194        N  0.89569575  0.05617509  0.97751019    -0.34600
C195        C  0.89529406  0.05028124  0.98954494     0.01600
C196        C  0.88389101  0.04398129  0.99064251     0.07600
C197        C  0.87757647  0.04650264  0.97856364    -0.05500
H198        H  0.90302685  0.05018219  0.99674852     0.08300
H199        H  0.86831514  0.04310114  0.97560877     0.09500
Cu200      Cu  0.91118864  0.06582752  0.97002217     0.44200
Cu201      Cu  0.88162572  0.06216452  0.95175941     0.42000
Cu202      Cu  0.90974855  0.07883420  0.93737398     0.43900
N203        N  0.92680834  0.07381716  0.96078377    -0.34100
N204        N  0.92648241  0.07841857  0.94833002    -0.28400
C205        C  0.93826955  0.08194423  0.94466507    -0.04500
C206        C  0.94634084  0.07943889  0.95541633     0.07700
C207        C  0.93873733  0.07431314  0.96547030     0.01500
H208        H  0.94082328  0.08568884  0.93480155     0.09200
H209        H  0.94171006  0.07064390  0.97519670     0.08200
N210        N  0.89157828  0.07943707  0.92942034    -0.35600
N211        N  0.88149557  0.07343057  0.93421204    -0.27800
C212        C  0.87129685  0.07691330  0.92682896    -0.03000
C213        C  0.87517063  0.08561613  0.91714984     0.05600
C214        C  0.88805272  0.08692726  0.91908861     0.03700
H215        H  0.86168688  0.07391162  0.92887133     0.08800
H216        H  0.89438887  0.09320904  0.91368320     0.07600
N217        N  0.09436319  0.04973286  0.97780945    -0.26800
N218        N  0.08288452  0.05153347  0.98285373    -0.34600
C219        C  0.08229661  0.04673297  0.99543300     0.01600
C220        C  0.09388056  0.04147617  0.99855306     0.07600
C221        C  0.10138364  0.04349384  0.98714083    -0.05500
H222        H  0.07384392  0.04666538  0.00168686     0.08300
H223        H  0.11113025  0.04059833  0.98570168     0.09500
Cu224      Cu  0.06788657  0.05936787  0.97243876     0.44200
Cu225      Cu  0.09923395  0.05624299  0.95841285     0.42000
Cu226      Cu  0.07202126  0.07002549  0.93900178     0.43900
N227        N  0.05304212  0.06605970  0.96091890    -0.34100
N228        N  0.05437785  0.06991267  0.94824576    -0.28400
C229        C  0.04299801  0.07362002  0.94347921    -0.04500
C230        C  0.03415743  0.07199789  0.95376812     0.07700
C231        C  0.04085832  0.06719187  0.96464122     0.01500
H232        H  0.04133556  0.07731488  0.93338128     0.09200
H233        H  0.03716681  0.06467858  0.97450982     0.08200
N234        N  0.09088896  0.07061861  0.93313942    -0.35600
N235        N  0.10062461  0.06560361  0.93972024    -0.27800
C236        C  0.11141882  0.06906675  0.93335944    -0.03000
C237        C  0.10826282  0.07666220  0.92242991     0.05600
C238        C  0.09523406  0.07747732  0.92265356     0.03700
H239        H  0.12084972  0.06711258  0.93709286     0.08800
H240        H  0.08936236  0.08327103  0.91615363     0.07600
N241        N  0.88362888  0.96210224  0.06581560    -0.26800
N242        N  0.89508149  0.96707845  0.06677135    -0.34600
C243        C  0.89543015  0.97799459  0.05983401     0.01600
C244        C  0.88372638  0.97994660  0.05397144     0.07600
C245        C  0.87642107  0.96966462  0.05789592    -0.05500
H246        H  0.90372171  0.98393258  0.05885070     0.08300
H247        H  0.86658761  0.96795032  0.05542760     0.09500
Cu248      Cu  0.91017983  0.95848583  0.07646638     0.44200
Cu249      Cu  0.87884448  0.94555809  0.07622150     0.42000
Cu250      Cu  0.90621485  0.92833542  0.09166125     0.43900
N251        N  0.92512286  0.94815147  0.08430574    -0.34100
N252        N  0.92390767  0.93684048  0.08983507    -0.28400
C253        C  0.93548103  0.93261340  0.09352737    -0.04500
C254        C  0.94434284  0.94175090  0.09006307     0.07700
C255        C  0.93739410  0.95143842  0.08425497     0.01500
H256        H  0.93731033  0.92355746  0.09825389     0.09200
H257        H  0.94096664  0.96021242  0.08011883     0.08200
N258        N  0.88723347  0.92331072  0.09371764    -0.35600
N259        N  0.87743844  0.92963772  0.08873451    -0.27800
C260        C  0.86666279  0.92434623  0.09343315    -0.03000
C261        C  0.86983969  0.91414924  0.10154791     0.05600
C262        C  0.88292599  0.91375377  0.10144953     0.03700
H263        H  0.85722458  0.92778386  0.09125546     0.08800
H264        H  0.88892561  0.90735123  0.10711373     0.07600
N265        N  0.09350459  0.96716185  0.08217536    -0.26800
N266        N  0.08170816  0.97132692  0.08272982    -0.34600
C267        C  0.08069632  0.98200155  0.07548699     0.01600
C268        C  0.09237011  0.98476167  0.06987471     0.07600
C269        C  0.10032367  0.97511056  0.07425050    -0.05500
H270        H  0.07190289  0.98705317  0.07391301     0.08300
H271        H  0.11024757  0.97392179  0.07179726     0.09500
Cu272      Cu  0.06681548  0.96164213  0.09139852     0.44200
Cu273      Cu  0.09885515  0.95065745  0.09247398     0.42000
Cu274      Cu  0.07121820  0.93059750  0.10313461     0.43900
N275        N  0.05185391  0.94988973  0.09603884    -0.34100
N276        N  0.05321633  0.93810076  0.10018506    -0.28400
C277        C  0.04162584  0.93282314  0.10156228    -0.04500
C278        C  0.03264957  0.94181755  0.09796736     0.07700
C279        C  0.03950328  0.95245985  0.09453907     0.01500
H280        H  0.03989832  0.92315488  0.10465337     0.09200
H281        H  0.03578963  0.96138855  0.09093769     0.08200
N282        N  0.09017400  0.92686366  0.10734970    -0.35600
N283        N  0.09999574  0.93412279  0.10420090    -0.27800
C284        C  0.11048035  0.92919978  0.11001054    -0.03000
C285        C  0.10708830  0.91830170  0.11692403     0.05600
C286        C  0.09419256  0.91711784  0.11495613     0.03700
H287        H  0.11985285  0.93330604  0.10933930     0.08800
H288        H  0.08803253  0.90996392  0.11922735     0.07600
N289        N  0.59189696  0.96052819  0.45419245    -0.26800
N290        N  0.57995820  0.96417327  0.45527592    -0.34600
C291        C  0.57929985  0.97469783  0.46280736     0.01600
C292        C  0.59134338  0.97784927  0.46699060     0.07600
C293        C  0.59919844  0.96864461  0.46139373    -0.05500
H294        H  0.57057579  0.97945040  0.46548379     0.08300
H295        H  0.60937391  0.96793273  0.46242949     0.09500
Cu296      Cu  0.56461037  0.95422933  0.44803467     0.44200
Cu297      Cu  0.59671103  0.94469766  0.44241001     0.42000
Cu298      Cu  0.56873591  0.92562985  0.43041534     0.43900
N299        N  0.54955089  0.94295083  0.44254702    -0.34100
N300        N  0.55083919  0.93214745  0.43597308    -0.28400
C301        C  0.53922115  0.92725273  0.43366604    -0.04500
C302        C  0.53029574  0.93545849  0.43913490     0.07700
C303        C  0.53721150  0.94524465  0.44469077     0.01500
H304        H  0.53741847  0.91854333  0.42823325     0.09200
H305        H  0.53353420  0.95356385  0.44974379     0.08200
N306        N  0.58760183  0.92245325  0.42507832    -0.35600
N307        N  0.59748918  0.92931497  0.42892421    -0.27800
C308        C  0.60791529  0.92490591  0.42252525    -0.03000
C309        C  0.60445277  0.91475478  0.41446130     0.05600
C310        C  0.59154070  0.91346360  0.41637288     0.03700
H311        H  0.61732610  0.92882438  0.42364324     0.08800
H312        H  0.58535206  0.90671522  0.41146845     0.07600
N313        N  0.38164809  0.96019184  0.46107168    -0.26800
N314        N  0.39345566  0.96420667  0.46007467    -0.34600
C315        C  0.39508431  0.97438517  0.46793637     0.01600
C316        C  0.38380178  0.97700091  0.47443160     0.07600
C317        C  0.37541497  0.96776434  0.46993798    -0.05500
H318        H  0.40404244  0.97919633  0.46924518     0.08300
H319        H  0.36560065  0.96663258  0.47289385     0.09500
Cu320      Cu  0.40755272  0.95508730  0.44962623     0.44200
Cu321      Cu  0.37575665  0.94447041  0.44977522     0.42000
Cu322      Cu  0.40306126  0.92561096  0.43464634     0.43900
N323        N  0.42241236  0.94451747  0.44249434    -0.34100
N324        N  0.42115336  0.93320871  0.43702535    -0.28400
C325        C  0.43281939  0.92861025  0.43417289    -0.04500
C326        C  0.44171571  0.93754813  0.43819952     0.07700
C327        C  0.43470448  0.94746446  0.44339333     0.01500
H328        H  0.43468900  0.91941454  0.42977918     0.09200
H329        H  0.43822705  0.95613538  0.44782261     0.08200
N330        N  0.38375874  0.92209527  0.43192008    -0.35600
N331        N  0.37414830  0.92896098  0.43657450    -0.27800
C332        C  0.36329225  0.92442720  0.43121463    -0.03000
C333        C  0.36622132  0.91417688  0.42303134     0.05600
C334        C  0.37920882  0.91294006  0.42381431     0.03700
H335        H  0.35397607  0.92834993  0.43308790     0.08800
H336        H  0.38502328  0.90619371  0.41838630     0.07600
N337        N  0.59512796  0.04730310  0.55596105    -0.26800
N338        N  0.58382286  0.05017763  0.55111547    -0.34600
C339        C  0.58222309  0.04464822  0.53900668     0.01600
C340        C  0.59300150  0.03782147  0.53588115     0.07600
C341        C  0.60105519  0.03968416  0.54689033    -0.05500
H342        H  0.57356800  0.04520481  0.53317381     0.08300
H343        H  0.61039744  0.03568324  0.54827087     0.09500
Cu344      Cu  0.57006950  0.06001401  0.56151468     0.44200
Cu345      Cu  0.60095383  0.05429062  0.57492339     0.42000
Cu346      Cu  0.57486976  0.06965315  0.59518188     0.43900
N347        N  0.55537070  0.06561498  0.57386895    -0.34100
N348        N  0.55684499  0.06880960  0.58672787    -0.28400
C349        C  0.54530465  0.07049526  0.59238572    -0.04500
C350        C  0.53622646  0.06819395  0.58250764     0.07700
C351        C  0.54298748  0.06516881  0.57091359     0.01500
H352        H  0.54364561  0.07281514  0.60294995     0.09200
H353        H  0.53923604  0.06228194  0.56119727     0.08200
N354        N  0.59411222  0.07023823  0.59981654    -0.35600
N355        N  0.60337741  0.06456464  0.59302088    -0.27800
C356        C  0.61453017  0.06762642  0.59886936    -0.03000
C357        C  0.61216116  0.07572787  0.60963628     0.05600
C358        C  0.59914997  0.07715142  0.60991130     0.03700
H359        H  0.62371710  0.06475415  0.59508372     0.08800
H360        H  0.59371710  0.08305916  0.61675709     0.07600
N361        N  0.38729794  0.04161735  0.56762884    -0.26800
N362        N  0.39916969  0.04127142  0.56337100    -0.34600
C363        C  0.39980243  0.03513682  0.55148513     0.01600
C364        C  0.38778386  0.03121564  0.54807448     0.07600
C365        C  0.38000147  0.03541488  0.55853420    -0.05500
H366        H  0.40843726  0.03353371  0.54581350     0.08300
H367        H  0.36983560  0.03434379  0.55929114     0.09500
Cu368      Cu  0.41423145  0.04877415  0.57375149     0.44200
Cu369      Cu  0.38236525  0.05145506  0.58527248     0.42000
Cu370      Cu  0.40997543  0.06577265  0.60408650     0.43900
N371        N  0.42916449  0.05589552  0.58463442    -0.34100
N372        N  0.42793708  0.06209559  0.59619923    -0.28400
C373        C  0.43957039  0.06556482  0.60053316    -0.04500
C374        C  0.44837831  0.06135362  0.59105522     0.07700
C375        C  0.44142469  0.05530038  0.58116962     0.01500
H376        H  0.44142111  0.07105387  0.60959837     0.09200
H377        H  0.44498527  0.05090050  0.57203060     0.08200
N378        N  0.39083741  0.06865787  0.60846505    -0.35600
N379        N  0.38106409  0.06344528  0.60212030    -0.27800
C380        C  0.37025308  0.06780103  0.60776583    -0.03000
C381        C  0.37337304  0.07622487  0.61797393     0.05600
C382        C  0.38646587  0.07652428  0.61812090     0.03700
H383        H  0.36082899  0.06534061  0.60437618     0.08800
H384        H  0.39243267  0.08214078  0.62470328     0.07600
N385        N  0.72070548  0.13870885  0.69167448    -0.26800
N386        N  0.72604407  0.14966770  0.68868355    -0.34600
C387        C  0.73601956  0.15155278  0.69684744     0.01600
C388        C  0.73704150  0.14137552  0.70557650     0.07600
C389        C  0.72717117  0.13336772  0.70203086    -0.05500
H390        H  0.74159972  0.16013852  0.69697167     0.08300
H391        H  0.72461576  0.12456769  0.70691972     0.09500
Cu392      Cu  0.71827483  0.16310606  0.67599276     0.44200
Cu393      Cu  0.70427675  0.13252469  0.68188287     0.42000
Cu394      Cu  0.68647603  0.15897395  0.66607001     0.43900
N395        N  0.70726439  0.17786516  0.66903970    -0.34100
N396        N  0.69519460  0.17663018  0.66579837    -0.28400
C397        C  0.69032913  0.18819722  0.66325946    -0.04500
C398        C  0.69984526  0.19707812  0.66511268     0.07700
C399        C  0.71043125  0.19014247  0.66873308     0.01500
H400        H  0.68051964  0.19003989  0.66072537     0.09200
H401        H  0.71965621  0.19376166  0.67154078     0.08200
N402        N  0.68121247  0.13999978  0.66536078    -0.35600
N403        N  0.68777654  0.13038273  0.67035952    -0.27800
C404        C  0.68205807  0.11948660  0.66667662    -0.03000
C405        C  0.67133707  0.12246378  0.65921508     0.05600
C406        C  0.67108964  0.13549599  0.65867750     0.03700
H407        H  0.68543735  0.11012938  0.66925980     0.08800
H408        H  0.66426701  0.14130819  0.65336216     0.07600
N409        N  0.71470883  0.34600323  0.68772995    -0.26800
N410        N  0.71992632  0.33474641  0.68614836    -0.34600
C411        C  0.72986938  0.33363048  0.69450643     0.01600
C412        C  0.73100359  0.34465258  0.70194394     0.07600
C413        C  0.72121797  0.35235603  0.69739187    -0.05500
H414        H  0.73536754  0.32506488  0.69566134     0.08300
H415        H  0.71878809  0.36167075  0.70110558     0.09500
Cu416      Cu  0.71199552  0.32025144  0.67506315     0.44200
Cu417      Cu  0.69840182  0.35095775  0.67693440     0.42000
Cu418      Cu  0.68076097  0.32332500  0.66238178     0.43900
N419        N  0.70141252  0.30495450  0.66880106    -0.34100
N420        N  0.68962062  0.30576551  0.66440907    -0.28400
C421        C  0.68521304  0.29396107  0.66211483    -0.04500
C422        C  0.69477120  0.28542721  0.66530322     0.07700
C423        C  0.70484182  0.29276393  0.66948418     0.01500
H424        H  0.67576737  0.29176809  0.65854918     0.09200
H425        H  0.71395903  0.28946767  0.67305642     0.08200
N426        N  0.67546834  0.34229599  0.66050395    -0.35600
N427        N  0.68201302  0.35212542  0.66505442    -0.27800
C428        C  0.67623451  0.36284600  0.66097778    -0.03000
C429        C  0.66545194  0.35961751  0.65381063     0.05600
C430        C  0.66524541  0.34654972  0.65373694     0.03700
H431        H  0.67956196  0.37228338  0.66320664     0.08800
H432        H  0.65837045  0.34055169  0.64876042     0.07600
N433        N  0.79553032  0.35361232  0.79613733    -0.26800
N434        N  0.79943779  0.34279985  0.79081811    -0.34600
C435        C  0.79377850  0.34092696  0.77883243     0.01600
C436        C  0.78572998  0.35088832  0.77631273     0.07600
C437        C  0.78703900  0.35886620  0.78748705    -0.05500
H438        H  0.79498535  0.33252695  0.77268360     0.08300
H439        H  0.78202851  0.36762655  0.78931488     0.09500
Cu440      Cu  0.81030108  0.32935631  0.80038793     0.44200
Cu441      Cu  0.80219053  0.35982737  0.81521366     0.42000
Cu442      Cu  0.81865058  0.33372540  0.83386381     0.43900
N443        N  0.81627290  0.31450214  0.81223805    -0.34100
N444        N  0.81927247  0.31594489  0.82514109    -0.28400
C445        C  0.82149790  0.30449001  0.83065442    -0.04500
C446        C  0.81964696  0.29546538  0.82063216     0.07700
C447        C  0.81635245  0.30216081  0.80912398     0.01500
H448        H  0.82370890  0.30284211  0.84124283     0.09200
H449        H  0.81366129  0.29831625  0.79935526     0.08200
N450        N  0.81825728  0.35254097  0.83967318    -0.35600
N451        N  0.81241867  0.36203174  0.83349172    -0.27800
C452        C  0.81534029  0.37287259  0.84012743    -0.03000
C453        C  0.82349777  0.36995882  0.85075645     0.05600
C454        C  0.82503845  0.35703096  0.85009825     0.03700
H455        H  0.81239912  0.38220801  0.83695911     0.08800
H456        H  0.83106295  0.35126799  0.85648223     0.07600
N457        N  0.79409994  0.14555152  0.80480139    -0.26800
N458        N  0.79485229  0.15709933  0.79975584    -0.34600
C459        C  0.78964082  0.15739735  0.78739721     0.01600
C460        C  0.78518847  0.14552062  0.78435549     0.07600
C461        C  0.78808891  0.13812516  0.79563050    -0.05500
H462        H  0.78910496  0.16574297  0.78107743     0.08300
H463        H  0.78630616  0.12812565  0.79689482     0.09500
Cu464      Cu  0.80270407  0.17238512  0.80929744     0.44200
Cu465      Cu  0.80250656  0.14140274  0.82358049     0.42000
Cu466      Cu  0.81848495  0.16979290  0.83996738     0.43900
N467        N  0.80994741  0.18790682  0.81895771    -0.34100
N468        N  0.81589264  0.18727386  0.83070495    -0.28400
C469        C  0.81932265  0.19906897  0.83443802    -0.04500
C470        C  0.81530248  0.20739186  0.82441835     0.07700
C471        C  0.80940240  0.19994368  0.81480106     0.01500
H472        H  0.82434817  0.20139926  0.84367902     0.09200
H473        H  0.80492426  0.20300045  0.80547843     0.08200
N474        N  0.81979730  0.15105353  0.84633816    -0.35600
N475        N  0.81390213  0.14111626  0.84106102    -0.27800
C476        C  0.81737990  0.13070507  0.84805875    -0.03000
C477        C  0.82595049  0.13426286  0.85798704     0.05600
C478        C  0.82726892  0.14716097  0.85655925     0.03700
H479        H  0.81436680  0.12119172  0.84566635     0.08800
H480        H  0.83337983  0.15329315  0.86241603     0.07600
N481        N  0.59222395  0.53217116  0.45497697    -0.26800
N482        N  0.58041074  0.52826628  0.45643192    -0.34600
C483        C  0.58019040  0.51787223  0.46416924     0.01600
C484        C  0.59242220  0.51505621  0.46799786     0.07600
C485        C  0.59990036  0.52435574  0.46208598    -0.05500
H486        H  0.57166830  0.51273457  0.46685641     0.08300
H487        H  0.61011941  0.52510971  0.46250114     0.09500
Cu488      Cu  0.56479829  0.53704489  0.44828379     0.44200
Cu489      Cu  0.59642787  0.54746338  0.44233843     0.42000
Cu490      Cu  0.56789080  0.56491669  0.42906442     0.43900
N491        N  0.54935897  0.54688896  0.44122653    -0.34100
N492        N  0.55024603  0.55746775  0.43417522    -0.28400
C493        C  0.53845290  0.56155751  0.43121044    -0.04500
C494        C  0.52984669  0.55305213  0.43672923     0.07700
C495        C  0.53711541  0.54391681  0.44298068     0.01500
H496        H  0.53632614  0.57000372  0.42543835     0.09200
H497        H  0.53375895  0.53568381  0.44843435     0.08200
N498        N  0.58672113  0.56874404  0.42408736    -0.35600
N499        N  0.59677284  0.56238156  0.42840777    -0.27800
C500        C  0.60719940  0.56712658  0.42235313    -0.03000
C501        C  0.60357452  0.57698423  0.41399511     0.05600
C502        C  0.59055686  0.57776131  0.41536429     0.03700
H503        H  0.61673359  0.56371042  0.42401139     0.08800
H504        H  0.58426904  0.58426879  0.41022469     0.07600
N505        N  0.38007273  0.52816380  0.45373099    -0.26800
N506        N  0.39146918  0.52318124  0.45223111    -0.34600
C507        C  0.39239962  0.51270247  0.45977226     0.01600
C508        C  0.38114914  0.51096116  0.46662592     0.07600
C509        C  0.37344338  0.52094891  0.46260509    -0.05500
H510        H  0.40097601  0.50717249  0.46084211     0.08300
H511        H  0.36391351  0.52295456  0.46605855     0.09500
Cu512      Cu  0.40636620  0.53188408  0.44258227     0.44200
Cu513      Cu  0.37528222  0.54483033  0.44348274     0.42000
Cu514      Cu  0.40335781  0.56335503  0.43123609     0.43900
N515        N  0.42180792  0.54296679  0.43810136    -0.34100
N516        N  0.42095378  0.55483125  0.43404630    -0.28400
C517        C  0.43275854  0.55954727  0.43258643    -0.04500
C518        C  0.44134395  0.55016370  0.43608898     0.07700
C519        C  0.43404021  0.53981225  0.43953322     0.01500
H520        H  0.43491818  0.56910777  0.42945029     0.09200
H521        H  0.43732478  0.53066794  0.44295921     0.08200
N522        N  0.38446291  0.56770568  0.42721774    -0.35600
N523        N  0.37452776  0.56086670  0.43098973    -0.27800
C524        C  0.36408920  0.56561557  0.42497500    -0.03000
C525        C  0.36759858  0.57597583  0.41723488     0.05600
C526        C  0.38053141  0.57707614  0.41898578     0.03700
H527        H  0.35467461  0.56167206  0.42598121     0.08800
H528        H  0.38674461  0.58378932  0.41405493     0.07600
N529        N  0.59499588  0.44150557  0.55207165    -0.26800
N530        N  0.58452338  0.43842704  0.54548497    -0.34600
C531        C  0.58425102  0.44452419  0.53354661     0.01600
C532        C  0.59493478  0.45197137  0.53254915     0.07600
C533        C  0.60159103  0.44987491  0.54448009    -0.05500
H534        H  0.57647695  0.44406022  0.52639340     0.08300
H535        H  0.61045606  0.45418241  0.54747826     0.09500
Cu536      Cu  0.56977428  0.42798005  0.55357514     0.44200
Cu537      Cu  0.59948014  0.43381826  0.57100378     0.42000
Cu538      Cu  0.57325314  0.41673425  0.58726482     0.43900
N539        N  0.55452613  0.42223908  0.56526313    -0.34100
N540        N  0.55570711  0.41850474  0.57800363    -0.28400
C541        C  0.54408913  0.41679048  0.58337712    -0.04500
C542        C  0.53520340  0.41959225  0.57348018     0.07700
C543        C  0.54215497  0.42297190  0.56213001     0.01500
H544        H  0.54227318  0.41397323  0.59376791     0.09200
H545        H  0.53849596  0.42619009  0.55247185     0.08200
N546        N  0.59197099  0.41584520  0.59362610    -0.35600
N547        N  0.60143225  0.42225820  0.58808254    -0.27800
C548        C  0.61228719  0.41904317  0.59440578    -0.03000
C549        C  0.60950216  0.41012192  0.60428070     0.05600
C550        C  0.59656307  0.40832709  0.60347662     0.03700
H551        H  0.62156926  0.42251494  0.59159976     0.08800
H552        H  0.59092128  0.40179881  0.60939511     0.07600
N553        N  0.38541187  0.44555105  0.55903101    -0.26800
N554        N  0.39659026  0.44346628  0.55340868    -0.34600
C555        C  0.39703660  0.44884399  0.54113685     0.01600
C556        C  0.38560662  0.45473857  0.53870369     0.07600
C557        C  0.37838490  0.45253665  0.55030781    -0.05500
H558        H  0.40528487  0.44868180  0.53461545     0.08300
H559        H  0.36878725  0.45567527  0.55220650     0.09500
Cu560      Cu  0.41147090  0.43420261  0.56232889     0.44200
Cu561      Cu  0.38115201  0.43786931  0.57810522     0.42000
Cu562      Cu  0.40928587  0.42135499  0.59445449     0.43900
N563        N  0.42711590  0.42722897  0.57210377    -0.34100
N564        N  0.42669627  0.42267083  0.58455999    -0.28400
C565        C  0.43859261  0.41965414  0.58844586    -0.04500
C566        C  0.44675683  0.42246068  0.57776832     0.07700
C567        C  0.43910375  0.42722594  0.56761343     0.01500
H568        H  0.44110883  0.41580784  0.59826123     0.09200
H569        H  0.44202304  0.43077644  0.55779829     0.08200
N570        N  0.39037712  0.42007238  0.60052613    -0.35600
N571        N  0.38052324  0.42614724  0.59527135    -0.27800
C572        C  0.36989854  0.42219858  0.60163807    -0.03000
C573        C  0.37321045  0.41308414  0.61106639     0.05600
C574        C  0.38621413  0.41200738  0.61008162     0.03700
H575        H  0.36039731  0.42512338  0.59895766     0.08800
H576        H  0.39222515  0.40552446  0.61563254     0.07600
N577        N  0.88765159  0.45343242  0.96098634    -0.26800
N578        N  0.89925994  0.45158806  0.96561150    -0.34600
C579        C  0.90087031  0.45802054  0.97718248     0.01600
C580        C  0.88981174  0.46434182  0.98016904     0.07600
C581        C  0.88153277  0.46127971  0.96967923    -0.05500
H582        H  0.90956964  0.45812450  0.98299139     0.08300
H583        H  0.87181386  0.46435827  0.96855901     0.09500
Cu584      Cu  0.91310399  0.44105775  0.95626700     0.44200
Cu585      Cu  0.88141450  0.44434605  0.94322466     0.42000
Cu586      Cu  0.90800531  0.42726997  0.92499930     0.43900
N587        N  0.92774837  0.43342119  0.94523580    -0.34100
N588        N  0.92624077  0.42871212  0.93294089    -0.28400
C589        C  0.93772877  0.42543214  0.92795413    -0.04500
C590        C  0.94675433  0.42816998  0.93779861     0.07700
C591        C  0.94004568  0.43316621  0.94857231     0.01500
H592        H  0.93936074  0.42129308  0.91804748     0.09200
H593        H  0.94385864  0.43666459  0.95804290     0.08200
N594        N  0.88869882  0.42586886  0.92066684    -0.35600
N595        N  0.87923508  0.43207301  0.92656503    -0.27800
C596        C  0.86823006  0.42837588  0.92075381    -0.03000
C597        C  0.87095658  0.41933901  0.91095880     0.05600
C598        C  0.88394891  0.41799574  0.91127324     0.03700
H599        H  0.85893369  0.43166923  0.92377970     0.08800
H600        H  0.88959827  0.41165473  0.90511778     0.07600
N601        N  0.09506918  0.44873039  0.96751835    -0.26800
N602        N  0.08369127  0.44636449  0.97256401    -0.34600
C603        C  0.08267569  0.45158879  0.98491381     0.01600
C604        C  0.09388262  0.45769216  0.98791080     0.07600
C605        C  0.10157520  0.45575189  0.97663229    -0.05500
H606        H  0.07413888  0.45137606  0.99101836     0.08300
H607        H  0.11111649  0.45923236  0.97513823     0.09500
Cu608      Cu  0.06910077  0.43753479  0.96237931     0.44200
Cu609      Cu  0.10062180  0.44186249  0.94844039     0.42000
Cu610      Cu  0.07359861  0.42815513  0.92879883     0.43900
N611        N  0.05420517  0.43171234  0.95037010    -0.34100
N612        N  0.05562300  0.42863802  0.93746641    -0.28400
C613        C  0.04412382  0.42612764  0.93211752    -0.04500
C614        C  0.03510605  0.42766532  0.94226206     0.07700
C615        C  0.04187716  0.43119707  0.95367765     0.01500
H616        H  0.04245490  0.42343136  0.92166557     0.09200
H617        H  0.03812106  0.43356709  0.96358667     0.08200
N618        N  0.09269142  0.42643512  0.92377524    -0.35600
N619        N  0.10239745  0.43146669  0.93038723    -0.27800
C620        C  0.11325902  0.42737641  0.92456965    -0.03000
C621        C  0.11019438  0.41925453  0.91402562     0.05600
C622        C  0.09711684  0.41892597  0.91384026     0.03700
H623        H  0.12265815  0.42944094  0.92834156     0.08800
H624        H  0.09120446  0.41322505  0.90729095     0.07600
N625        N  0.88503407  0.53226941  0.07122814    -0.26800
N626        N  0.89645040  0.52756509  0.07339103    -0.34600
C627        C  0.89839759  0.51768427  0.06516567     0.01600
C628        C  0.88779168  0.51601288  0.05717213     0.07600
C629        C  0.87941351  0.52542810  0.06129562    -0.05500
H630        H  0.90732525  0.51270465  0.06440273     0.08300
H631        H  0.87020527  0.52747966  0.05700577     0.09500
Cu632      Cu  0.91045152  0.53626341  0.08449048     0.44200
Cu633      Cu  0.87902521  0.54844858  0.08169139     0.42000
Cu634      Cu  0.90642105  0.56802595  0.09350647     0.43900
N635        N  0.92555396  0.54778276  0.08913106    -0.34100
N636        N  0.92431501  0.55991481  0.09196970    -0.28400
C637        C  0.93595062  0.56501547  0.09347504    -0.04500
C638        C  0.94485006  0.55554221  0.09136203     0.07700
C639        C  0.93789752  0.54478941  0.08863215     0.01500
H640        H  0.93777523  0.57485604  0.09574096     0.09200
H641        H  0.94154010  0.53551779  0.08614251     0.08200
N642        N  0.88747142  0.57135614  0.09816790    -0.35600
N643        N  0.87772766  0.56416885  0.09461817    -0.27800
C644        C  0.86729989  0.56831014  0.10123003    -0.03000
C645        C  0.87066474  0.57860725  0.10915484     0.05600
C646        C  0.88345196  0.58029093  0.10687126     0.03700
H647        H  0.85802865  0.56400317  0.10050325     0.08800
H648        H  0.88956201  0.58715081  0.11172815     0.07600
N649        N  0.09472846  0.53497918  0.06857450    -0.26800
N650        N  0.08349223  0.52975458  0.07045867    -0.34600
C651        C  0.08293852  0.51876902  0.06370705     0.01600
C652        C  0.09429265  0.51696803  0.05703604     0.07600
C653        C  0.10161543  0.52744448  0.06028253    -0.05500
H654        H  0.07462014  0.51281757  0.06316540     0.08300
H655        H  0.11112504  0.52948809  0.05680297     0.09500
Cu656      Cu  0.06856386  0.53843886  0.08021503     0.44200
Cu657      Cu  0.09940126  0.55208048  0.07787889     0.42000
Cu658      Cu  0.07151199  0.57004188  0.09136013     0.43900
N659        N  0.05313907  0.54924128  0.08570533    -0.34100
N660        N  0.05388036  0.56119657  0.08948008    -0.28400
C661        C  0.04201315  0.56562399  0.09155202    -0.04500
C662        C  0.03350510  0.55591565  0.08887156     0.07700
C663        C  0.04094972  0.54571314  0.08520802     0.01500
H664        H  0.03974605  0.57517304  0.09467001     0.09200
H665        H  0.03778030  0.53641844  0.08215337     0.08200
N666        N  0.09056079  0.57462846  0.09463985    -0.35600
N667        N  0.10048257  0.56802664  0.09036293    -0.27800
C668        C  0.11107188  0.57283627  0.09604846    -0.03000
C669        C  0.10767510  0.58301943  0.10410089     0.05600
C670        C  0.09464137  0.58390608  0.10288558     0.03700
H671        H  0.12049528  0.56903352  0.09464148     0.08800
H672        H  0.08847013  0.59039476  0.10821930     0.07600
N673        N  0.27450712  0.14143565  0.71135459    -0.26800
N674        N  0.27080066  0.15336032  0.71076042    -0.34600
C675        C  0.26061662  0.15499458  0.71867883     0.01600
C676        C  0.25768106  0.14360866  0.72474179     0.07600
C677        C  0.26673428  0.13515503  0.71997418    -0.05500
H678        H  0.25584184  0.16394932  0.72009028     0.08300
H679        H  0.26746920  0.12520233  0.72237592     0.09500
Cu680      Cu  0.27977931  0.16753135  0.70014556     0.44200
Cu681      Cu  0.28975290  0.13499867  0.69961823     0.42000
Cu682      Cu  0.30930901  0.16154124  0.68555816     0.43900
N683        N  0.29069809  0.18172122  0.69192496    -0.34100
N684        N  0.30210862  0.17973639  0.68686256    -0.28400
C685        C  0.30707831  0.19089469  0.68290082    -0.04500
C686        C  0.29824340  0.20026825  0.68564489     0.07700
C687        C  0.28800909  0.19409635  0.69133817     0.01500
H688        H  0.31637337  0.19207402  0.67841674     0.09200
H689        H  0.27933173  0.19831906  0.69505402     0.08200
N690        N  0.31220486  0.14244167  0.68187914    -0.35600
N691        N  0.30497814  0.13296450  0.68609867    -0.27800
C692        C  0.30913666  0.12218092  0.68024076    -0.03000
C693        C  0.31952508  0.12507475  0.67219425     0.05600
C694        C  0.32121660  0.13792347  0.67355706     0.03700
H695        H  0.30500907  0.11294366  0.68184837     0.08800
H696        H  0.32827130  0.14367117  0.66851868     0.07600
N697        N  0.28682842  0.34863958  0.71637461    -0.26800
N698        N  0.28573746  0.33664643  0.71994933    -0.34600
C699        C  0.28039091  0.33588720  0.73225858     0.01600
C700        C  0.27782363  0.34795876  0.73677471     0.07600
C701        C  0.28190189  0.35589607  0.72640504    -0.05500
H702        H  0.27867844  0.32712162  0.73762062     0.08300
H703        H  0.28188970  0.36612499  0.72645444     0.09500
Cu704      Cu  0.29207709  0.32149504  0.70877151     0.44200
Cu705      Cu  0.29672264  0.35373364  0.69875540     0.42000
Cu706      Cu  0.31394726  0.32626946  0.68268711     0.43900
N707        N  0.29929145  0.30674965  0.69758066    -0.34100
N708        N  0.30796636  0.30824283  0.68804976    -0.28400
C709        C  0.31068857  0.29685071  0.68258864    -0.04500
C710        C  0.30314311  0.28789472  0.68894995     0.07700
C711        C  0.29607170  0.29452176  0.69837924     0.01500
H712        H  0.31722781  0.29529424  0.67427400     0.09200
H713        H  0.28902897  0.29075910  0.70528664     0.08200
N714        N  0.31607020  0.34521907  0.67752744    -0.35600
N715        N  0.30962881  0.35491296  0.68259467    -0.27800
C716        C  0.31332636  0.36554705  0.67613071    -0.03000
C717        C  0.32255840  0.36235875  0.66670916     0.05600
C718        C  0.32406725  0.34946047  0.66792694     0.03700
H719        H  0.30978109  0.37491042  0.67836187     0.08800
H720        H  0.33047406  0.34352944  0.66216683     0.07600
N721        N  0.18613725  0.14336067  0.81235510    -0.26800
N722        N  0.18481403  0.15482728  0.80723871    -0.34600
C723        C  0.19128680  0.15566609  0.79556629     0.01600
C724        C  0.19716193  0.14424208  0.79318983     0.07600
C725        C  0.19374564  0.13656992  0.80404023    -0.05500
H726        H  0.19208283  0.16417419  0.78953360     0.08300
H727        H  0.19658996  0.12688361  0.80578417     0.09500
Cu728      Cu  0.17600497  0.16956862  0.81703364     0.44200
Cu729      Cu  0.17719693  0.13840989  0.83048196     0.42000
Cu730      Cu  0.16304279  0.16566711  0.84976067     0.43900
N731        N  0.17109014  0.18461813  0.82915277    -0.34100
N732        N  0.16624244  0.18344992  0.84146290    -0.28400
C733        C  0.16491997  0.19507251  0.84695567    -0.04500
C734        C  0.16934083  0.20383539  0.83759495     0.07700
C735        C  0.17318427  0.19686203  0.82649942     0.01500
H736        H  0.16155037  0.19694264  0.85715963     0.09200
H737        H  0.17752123  0.20039830  0.81727740     0.08200
N738        N  0.16094642  0.14662842  0.85459492    -0.35600
N739        N  0.16599627  0.13697434  0.84790105    -0.27800
C740        C  0.16232238  0.12612977  0.85390093    -0.03000
C741        C  0.15461409  0.12911410  0.86481911     0.05600
C742        C  0.15393857  0.14214515  0.86494301     0.03700
H743        H  0.16491234  0.11678252  0.85041325     0.08800
H744        H  0.14865905  0.14797299  0.87199689     0.07600
N745        N  0.20940985  0.35110019  0.82474164    -0.26800
N746        N  0.21217568  0.33905233  0.82277491    -0.34600
C747        C  0.22267322  0.33813020  0.81514560     0.01600
C748        C  0.22665675  0.35015872  0.81186388     0.07600
C749        C  0.21801443  0.35822743  0.81804149    -0.05500
H750        H  0.22675033  0.32930822  0.81167816     0.08300
H751        H  0.21794085  0.36844152  0.81763102     0.09500
Cu752      Cu  0.20096912  0.32427357  0.82917092     0.44200
Cu753      Cu  0.19389761  0.35652981  0.83663685     0.42000
Cu754      Cu  0.17272534  0.33018902  0.84787323     0.43900
N755        N  0.18895700  0.31010393  0.83546872    -0.34100
N756        N  0.17850821  0.31200345  0.84258653    -0.28400
C757        C  0.17318279  0.30068982  0.84538323    -0.04500
C758        C  0.18066238  0.29133594  0.83959145     0.07700
C759        C  0.19053474  0.29768470  0.83339343     0.01500
H760        H  0.16452122  0.29938083  0.85111994     0.09200
H761        H  0.19842754  0.29360081  0.82788721     0.08200
N762        N  0.17035043  0.34921208  0.85284768    -0.35600
N763        N  0.17806095  0.35854296  0.84929195    -0.27800
C764        C  0.17395440  0.36934299  0.85511597    -0.03000
C765        C  0.16310935  0.36669415  0.86253183     0.05600
C766        C  0.16109001  0.35389029  0.86080448     0.03700
H767        H  0.17848440  0.37844338  0.85395077     0.08800
H768        H  0.15355685  0.34830672  0.86523552     0.07600
C769        C  0.17772693  0.23564443  0.83487505     0.30300
C770        C  0.18431123  0.24591827  0.82941018    -0.36000
C771        C  0.18114631  0.25777585  0.83465868     0.16300
C772        C  0.17203087  0.25952767  0.84455480     0.22100
C773        C  0.16550440  0.24916033  0.85017877    -0.34200
C774        C  0.16877667  0.23719381  0.84499333     0.16200
O775        O  0.17904805  0.22379920  0.83112424    -0.26200
C776        C  0.17097488  0.21755302  0.83901211     0.06000
C777        C  0.16433471  0.22535702  0.84793372    -0.31100
O778        O  0.17047815  0.27160021  0.84767249    -0.22900
C779        C  0.17879871  0.27753710  0.83970593    -0.02900
C780        C  0.18568285  0.26937394  0.83145866    -0.17300
H781        H  0.19138782  0.24474615  0.82149826     0.20700
H782        H  0.15833931  0.25034330  0.85798214     0.19100
H783        H  0.15709887  0.22273208  0.85521908     0.19000
H784        H  0.19292001  0.27165109  0.82403017     0.14900
C785        C  0.26079579  0.35859137  0.76531647     0.30300
C786        C  0.25111783  0.36513623  0.77225388    -0.36000
C787        C  0.24733535  0.35999792  0.78483259     0.16300
C788        C  0.25277011  0.34920375  0.79015873     0.22100
C789        C  0.26264751  0.34294032  0.78348020    -0.34200
C790        C  0.26630246  0.34797485  0.77094259     0.16200
O791        O  0.26462367  0.36058626  0.75266217    -0.26200
C792        C  0.27260931  0.35106638  0.75026836     0.06000
C793        C  0.27405656  0.34304875  0.76133166    -0.31100
O794        O  0.24662136  0.34486268  0.80081390    -0.22900
C795        C  0.23719478  0.35303014  0.80257077    -0.02900
C796        C  0.23722654  0.36277099  0.79303981    -0.17300
H797        H  0.24628518  0.37312040  0.76774674     0.20700
H798        H  0.26655908  0.33417458  0.78730961     0.19100
H799        H  0.27939322  0.33431880  0.76188500     0.19000
H800        H  0.23010916  0.37000127  0.79153882     0.14900
C801        C  0.21492586  0.14534266  0.76333368     0.30300
C802        C  0.21908516  0.15100745  0.75132263    -0.36000
C803        C  0.22987318  0.14572805  0.74539186     0.16300
C804        C  0.23622076  0.13547843  0.75076604     0.22100
C805        C  0.23190388  0.12963179  0.76279931    -0.34200
C806        C  0.22102679  0.13499331  0.76883767     0.16200
O807        O  0.20564802  0.14953139  0.77100113    -0.26200
C808        C  0.20558814  0.14176622  0.78158909     0.06000
C809        C  0.21490255  0.13242982  0.78082123    -0.31100
O810        O  0.24672769  0.13283637  0.74392151    -0.22900
C811        C  0.24699317  0.14158976  0.73415596    -0.02900
C812        C  0.23669779  0.14974989  0.73459378    -0.17300
H813        H  0.21451253  0.15932034  0.74717956     0.20700
H814        H  0.23692226  0.12180161  0.76738992     0.19100
H815        H  0.21724301  0.12530734  0.78829970     0.19000
H816        H  0.23478567  0.15786356  0.72821243     0.14900
C817        C  0.29399213  0.23298611  0.68488691     0.30300
C818        C  0.28746563  0.24420957  0.68757908    -0.36000
C819        C  0.29440172  0.25535428  0.68598334     0.16300
C820        C  0.30689117  0.25556329  0.68179252     0.22100
C821        C  0.31343265  0.24425992  0.67895414    -0.34200
C822        C  0.30649885  0.23301530  0.68073589     0.16200
O823        O  0.28950846  0.22153364  0.68676128    -0.26200
C824        C  0.29920462  0.21401853  0.68378581     0.06000
C825        C  0.31005550  0.22060465  0.67988853    -0.31100
O826        O  0.31165742  0.26713276  0.68176159    -0.22900
C827        C  0.30207947  0.27428985  0.68612260    -0.02900
C828        C  0.29114540  0.26745108  0.68884749    -0.17300
H829        H  0.27775909  0.24422222  0.69119288     0.20700
H830        H  0.32333437  0.24421251  0.67604392     0.19100
H831        H  0.31930367  0.21683653  0.67737562     0.19000
H832        H  0.28218174  0.27086953  0.69277660     0.14900
C833        C  0.97755556  0.55048558  0.08901483     0.30300
C834        C  0.98850481  0.54339332  0.08648457    -0.36000
C835        C  0.00002044  0.54977090  0.08805696     0.16300
C836        C  0.00081191  0.56229792  0.09187412     0.22100
C837        C  0.98978925  0.56944148  0.09439810    -0.34200
C838        C  0.97819395  0.56303591  0.09280306     0.16200
O839        O  0.96584357  0.54632139  0.08810230    -0.26200
C840        C  0.95878234  0.55629628  0.09131167     0.06000
C841        C  0.96593598  0.56700349  0.09434108    -0.31100
O842        O  0.01268394  0.56626769  0.09272505    -0.22900
C843        C  0.01951077  0.55610897  0.08939714    -0.02900
C844        C  0.01208266  0.54561633  0.08639655    -0.17300
H845        H  0.98807107  0.53354260  0.08347852     0.20700
H846        H  0.99021928  0.57928723  0.09738391     0.19100
H847        H  0.96260441  0.57630469  0.09722601     0.19000
H848        H  0.01510503  0.53622990  0.08341578     0.14900
C849        C  0.13459967  0.40445306  0.89542203     0.30300
C850        C  0.14651146  0.40312922  0.88910783    -0.36000
C851        C  0.14859405  0.39171206  0.88209002     0.16300
C852        C  0.13964412  0.38221156  0.88153178     0.22100
C853        C  0.12774181  0.38358796  0.88768634    -0.34200
C854        C  0.12559825  0.39503306  0.89447368     0.16200
O855        O  0.13054263  0.41427606  0.90255265    -0.26200
C856        C  0.11873152  0.41111716  0.90598049     0.06000
C857        C  0.11517839  0.39928083  0.90118144    -0.31100
O858        O  0.14358869  0.37225056  0.87467815    -0.22900
C859        C  0.15518695  0.37540053  0.87060543    -0.02900
C860        C  0.15881146  0.38743306  0.87487562    -0.17300
H861        H  0.15362634  0.41047981  0.88959262     0.20700
H862        H  0.12061570  0.37624888  0.88717418     0.19100
H863        H  0.10624161  0.39443353  0.90259810     0.19000
H864        H  0.16770624  0.39224139  0.87306509     0.14900
C865        C  0.10274800  0.47976492  0.01293233     0.30300
C866        C  0.10865828  0.49065158  0.01821303    -0.36000
C867        C  0.10359669  0.49541555  0.03044319     0.16300
C868        C  0.09348258  0.48977090  0.03696997     0.22100
C869        C  0.08779287  0.47881865  0.03188475    -0.34200
C870        C  0.09275804  0.47416081  0.01969934     0.16200
O871        O  0.10497621  0.47440770  0.00099528    -0.26200
C872        C  0.09624712  0.46532129  0.00020250     0.06000
C873        C  0.08849347  0.46471884  0.01161287    -0.31100
O874        O  0.08935362  0.49638360  0.04737970    -0.22900
C875        C  0.09692480  0.50640711  0.04771516    -0.02900
C876        C  0.10608444  0.50629818  0.03749028    -0.17300
H877        H  0.11622108  0.49541986  0.01283642     0.20700
H878        H  0.07960023  0.47460413  0.03672357     0.19100
H879        H  0.08041932  0.45863233  0.01340243     0.19000
H880        H  0.11293682  0.51356429  0.03505156     0.14900
C881        C  0.89255853  0.48044030  0.01101693     0.30300
C882        C  0.89875107  0.48387662  0.02299173    -0.36000
C883        C  0.89263574  0.49290450  0.03101025     0.16300
C884        C  0.88119774  0.49833361  0.02756987     0.22100
C885        C  0.87488835  0.49478196  0.01552123    -0.34200
C886        C  0.88103008  0.48561523  0.00743017     0.16200
O887        O  0.89688616  0.47239325  0.00197695    -0.26200
C888        C  0.88805555  0.47221752  0.99238006     0.06000
C889        C  0.87788726  0.48024717  0.99519243    -0.31100
O890        O  0.87760306  0.50706123  0.03646074    -0.22900
C891        C  0.88690307  0.50708732  0.04564692    -0.02900
C892        C  0.89641245  0.49839978  0.04273065    -0.17300
H893        H  0.90784112  0.47990418  0.02577151     0.20700
H894        H  0.86595856  0.49898258  0.01257310     0.19100
H895        H  0.86958703  0.48202833  0.98904506     0.19000
H896        H  0.90510510  0.49660156  0.04822094     0.14900
C897        C  0.00287139  0.42522691  0.93332942     0.30300
C898        C  0.99221373  0.42474522  0.92472603    -0.36000
C899        C  0.98029781  0.42512626  0.93119437     0.16300
C900        C  0.97906482  0.42598714  0.94513228     0.22100
C901        C  0.98963728  0.42635150  0.95367126    -0.34200
C902        C  0.00145017  0.42596349  0.94724689     0.16200
O903        O  0.01492709  0.42547164  0.92958534    -0.26200
C904        C  0.02120732  0.42640849  0.94129920     0.06000
C905        C  0.01326872  0.42670459  0.95257326    -0.31100
O906        O  0.96720290  0.42689618  0.94909275    -0.22900
C907        C  0.96060405  0.42649896  0.93761786    -0.02900
C908        C  0.96822355  0.42533831  0.92609273    -0.17300
H909        H  0.99314402  0.42434608  0.91376973     0.20700
H910        H  0.98870741  0.42716699  0.96460831     0.19100
H911        H  0.01581201  0.42758345  0.96318983     0.19000
H912        H  0.96532747  0.42519396  0.91554495     0.14900
C913        C  0.34946027  0.39893545  0.63103600     0.30300
C914        C  0.33826311  0.39822956  0.63878374    -0.36000
C915        C  0.33608797  0.38672286  0.64556188     0.16300
C916        C  0.34425391  0.37656366  0.64452781     0.22100
C917        C  0.35542019  0.37728432  0.63686864    -0.34200
C918        C  0.35771160  0.38882247  0.63036174     0.16200
O919        O  0.35362296  0.40884089  0.62414491    -0.26200
C920        C  0.36475842  0.40501642  0.61922891     0.06000
C921        C  0.36776213  0.39266888  0.62279775    -0.31100
O922        O  0.34048416  0.36674592  0.65168502    -0.22900
C923        C  0.32982433  0.37064461  0.65755746    -0.02900
C924        C  0.32660536  0.38301868  0.65415386    -0.17300
H925        H  0.33180667  0.40616709  0.63965305     0.20700
H926        H  0.36200339  0.36943091  0.63622207     0.19100
H927        H  0.37616436  0.38730151  0.62018160     0.19000
H928        H  0.31848262  0.38846013  0.65750778     0.14900
C929        C  0.47958630  0.41927110  0.58299578     0.30300
C930        C  0.49088768  0.41754403  0.59032243    -0.36000
C931        C  0.50218255  0.41863218  0.58280420     0.16300
C932        C  0.50232190  0.42126615  0.56906387     0.22100
C933        C  0.49107358  0.42298428  0.56177119    -0.34200
C934        C  0.47983595  0.42188546  0.56925808     0.16200
O935        O  0.46791871  0.41888028  0.58792170    -0.26200
C936        C  0.46067012  0.42131530  0.57715912     0.06000
C937        C  0.46760695  0.42322237  0.56530467    -0.31100
O938        O  0.51387805  0.42193858  0.56404208    -0.22900
C939        C  0.52129988  0.41965885  0.57466512    -0.02900
C940        C  0.51455711  0.41754520  0.58663579    -0.17300
H941        H  0.49088160  0.41555137  0.60110059     0.20700
H942        H  0.49108334  0.42508804  0.55101139     0.19100
H943        H  0.46416382  0.42541957  0.55522778     0.19000
H944        H  0.51822498  0.41556518  0.59666793     0.14900
C945        C  0.38374061  0.48522937  0.48857864     0.30300
C946        C  0.39007351  0.47485032  0.49409746    -0.36000
C947        C  0.38547984  0.47044388  0.50652250     0.16300
C948        C  0.37529451  0.47577553  0.51320701     0.22100
C949        C  0.36874715  0.48613295  0.50750586    -0.34200
C950        C  0.37340771  0.49063210  0.49495270     0.16200
O951        O  0.38730942  0.49143262  0.47768227    -0.26200
C952        C  0.37916498  0.50096284  0.47681472     0.06000
C953        C  0.37017998  0.50094975  0.48723950    -0.31100
O954        O  0.37345574  0.47066977  0.52536681    -0.22900
C955        C  0.38263568  0.46202665  0.52631843    -0.02900
C956        C  0.39026305  0.46146526  0.51481809    -0.17300
H957        H  0.39839762  0.47083769  0.48931495     0.20700
H958        H  0.36095409  0.49067579  0.51272855     0.19100
H959        H  0.36291008  0.50791264  0.48928915     0.19000
H960        H  0.39856822  0.45569107  0.51303673     0.14900
C961        C  0.60257561  0.49306971  0.49238480     0.30300
C962        C  0.60786122  0.48902835  0.50479997    -0.36000
C963        C  0.60353143  0.47729803  0.50977781     0.16300
C964        C  0.59468300  0.47011176  0.50292872     0.22100
C965        C  0.58961951  0.47400704  0.49050926    -0.34200
C966        C  0.59384204  0.48566923  0.48563789     0.16200
O967        O  0.60401906  0.50428914  0.48658537    -0.26200
C968        C  0.59606188  0.50393588  0.47607505     0.06000
C969        C  0.58957898  0.49257262  0.47501027    -0.31100
O970        O  0.59096569  0.46016796  0.50986651    -0.22900
C971        C  0.59753834  0.46080251  0.52133602    -0.02900
C972        C  0.60561962  0.47122266  0.52186219    -0.17300
H973        H  0.61434918  0.49488868  0.51050431     0.20700
H974        H  0.58234509  0.46863143  0.48536546     0.19100
H975        H  0.58211543  0.49011040  0.46796138     0.19000
H976        H  0.61150265  0.47428736  0.53023368     0.14900
C977        C  0.47380173  0.55714240  0.43316168     0.30300
C978        C  0.48462736  0.56392469  0.42910425    -0.36000
C979        C  0.49635445  0.55854636  0.43263012     0.16300
C980        C  0.49730860  0.54731118  0.43969393     0.22100
C981        C  0.48653390  0.54054135  0.44370801    -0.34200
C982        C  0.47486634  0.54587294  0.44013785     0.16200
O983        O  0.46187407  0.56030693  0.43088392    -0.26200
C984        C  0.45527721  0.55087924  0.43641526     0.06000
C985        C  0.46288784  0.54165995  0.44231578    -0.31100
O986        O  0.50912941  0.54399623  0.44198703    -0.22900
C987        C  0.51591205  0.55318888  0.43632004    -0.02900
C988        C  0.50848360  0.56252008  0.43030836    -0.17300
H989        H  0.48395687  0.57273276  0.42356350     0.20700
H990        H  0.48720638  0.53169735  0.44920062     0.19100
H991        H  0.46002523  0.53307508  0.44745897     0.19000
H992        H  0.51155765  0.57097007  0.42505718     0.14900
C993        C  0.83572077  0.39322244  0.87293575     0.30300
C994        C  0.83596673  0.40426469  0.88100546    -0.36000
C995        C  0.84682150  0.40594943  0.88918514     0.16300
C996        C  0.85673215  0.39742535  0.88918488     0.22100
C997        C  0.85641939  0.38643047  0.88132121    -0.34200
C998        C  0.84561197  0.38470046  0.87336209     0.16200
O999        O  0.82656352  0.38950641  0.86460452    -0.26200
C1000       C  0.83071258  0.37841622  0.85986021     0.06000
C1001       C  0.84248716  0.37504341  0.86499503    -0.31100
O1002       O  0.86619935  0.40096865  0.89696403    -0.22900
C1003       C  0.86238910  0.41187424  0.90226602    -0.02900
C1004       C  0.85032486  0.41545144  0.89790272    -0.17300
H1005       H  0.82827969  0.41104163  0.88091132     0.20700
H1006       H  0.86413343  0.37967942  0.88136952     0.19100
H1007       H  0.84796109  0.36660151  0.86290988     0.19000
H1008       H  0.84515568  0.42399283  0.90036187     0.14900
C1009       C  0.81677396  0.26281051  0.81638100     0.30300
C1010       C  0.81338225  0.25177482  0.80947683    -0.36000
C1011       C  0.81540136  0.24045266  0.81645816     0.16300
C1012       C  0.82047040  0.23991780  0.82936404     0.22100
C1013       C  0.82387842  0.25102818  0.83632035    -0.34200
C1014       C  0.82178175  0.26243781  0.82932919     0.16200
O1015       O  0.81551680  0.27438472  0.81172060    -0.26200
C1016       C  0.81971285  0.28161835  0.82178314     0.06000
C1017       C  0.82373302  0.27473065  0.83304992    -0.31100
O1018       O  0.82131052  0.22819784  0.83396593    -0.22900
C1019       C  0.81667060  0.22123462  0.82384334    -0.02900
C1020       C  0.81288501  0.22839240  0.81272470    -0.17300
H1021       H  0.80932603  0.25201099  0.79936078     0.20700
H1022       H  0.82777122  0.25080201  0.84649423     0.19100
H1023       H  0.82748906  0.27825471  0.84255138     0.19000
H1024       H  0.80874148  0.22520741  0.80326146     0.14900
C1025       C  0.62532021  0.38890556  0.62577546     0.30300
C1026       C  0.62669932  0.37789827  0.63359656    -0.36000
C1027       C  0.63891792  0.37545675  0.63853409     0.16300
C1028       C  0.64904685  0.38343182  0.63622429     0.22100
C1029       C  0.64766937  0.39444222  0.62835546    -0.34200
C1030       C  0.63548453  0.39675631  0.62317843     0.16200
O1031       O  0.61485754  0.39269882  0.61970679    -0.26200
C1032       C  0.61835661  0.40306259  0.61301592     0.06000
C1033       C  0.63109835  0.40604628  0.61478656    -0.31100
O1034       O  0.65967922  0.37913696  0.64159477    -0.22900
C1035       C  0.65632672  0.36818309  0.64722355    -0.02900
C1036       C  0.64353821  0.36540729  0.64561458    -0.17300
H1037       H  0.61887360  0.37153108  0.63541760     0.20700
H1038       H  0.65558699  0.40059527  0.62616031     0.19100
H1039       H  0.63637507  0.41380306  0.61039761     0.19000
H1040       H  0.63844703  0.35712153  0.64903143     0.14900
C1041       C  0.74862831  0.35379367  0.73079305     0.30300
C1042       C  0.75172440  0.36067810  0.74262990    -0.36000
C1043       C  0.76213954  0.35613661  0.75017911     0.16300
C1044       C  0.76891241  0.34557883  0.74626608     0.22100
C1045       C  0.76585404  0.33877064  0.73454542    -0.34200
C1046       C  0.75555207  0.34327937  0.72708422     0.16200
O1047       O  0.73912655  0.35601240  0.72231427    -0.26200
C1048       C  0.74007758  0.34674573  0.71314921     0.06000
C1049       C  0.75014896  0.33861220  0.71566261    -0.31100
O1050       O  0.77801604  0.34268931  0.75479817    -0.22900
C1051       C  0.77724518  0.35147192  0.76441899    -0.02900
C1052       C  0.76752726  0.36016971  0.76211553    -0.17300
H1053       H  0.74634114  0.36885694  0.74579472     0.20700
H1054       H  0.77106644  0.33042034  0.73154103     0.19100
H1055       H  0.75298887  0.33030166  0.71002305     0.19000
H1056       H  0.76469390  0.36805815  0.76841475     0.14900
C1057       C  0.75394744  0.13495980  0.73564321     0.30300
C1058       C  0.75645678  0.12935796  0.74836560    -0.36000
C1059       C  0.76613865  0.13500743  0.75611991     0.16300
C1060       C  0.77278062  0.14542571  0.75156905     0.22100
C1061       C  0.77042708  0.15085855  0.73887693    -0.34200
C1062       C  0.76081885  0.14526629  0.73121988     0.16200
O1063       O  0.74480410  0.13187274  0.72706210    -0.26200
C1064       C  0.74592554  0.14034848  0.71708923     0.06000
C1065       C  0.75577177  0.14884488  0.71916757    -0.31100
O1066       O  0.78056096  0.14996302  0.76073367    -0.22900
C1067       C  0.77909685  0.14236364  0.77136194    -0.02900
C1068       C  0.77030562  0.13275691  0.76909807    -0.17300
H1069       H  0.75096377  0.12146457  0.75214449     0.20700
H1070       H  0.77542267  0.15921298  0.73543482     0.19100
H1071       H  0.75855544  0.15681409  0.71294259     0.19000
H1072       H  0.76689384  0.12574452  0.77622641     0.14900
C1073       C  0.69156349  0.22928239  0.66249544     0.30300
C1074       C  0.68375708  0.23987207  0.66017084    -0.36000
C1075       C  0.68934397  0.25178227  0.66240052     0.16300
C1076       C  0.70173425  0.25309075  0.66664927     0.22100
C1077       C  0.70948958  0.24257627  0.66892645    -0.34200
C1078       C  0.70395000  0.23075998  0.66666769     0.16200
O1079       O  0.68836927  0.21723440  0.66124187    -0.26200
C1080       C  0.69889698  0.21100140  0.66462178     0.06000
C1081       C  0.70885390  0.21897840  0.66805247    -0.31100
O1082       O  0.70510153  0.26497254  0.66818408    -0.22900
C1083       C  0.69479284  0.27149402  0.66486459    -0.02900
C1084       C  0.68464056  0.26379718  0.66116992    -0.17300
H1085       H  0.67399703  0.23889401  0.65688734     0.20700
H1086       H  0.71924675  0.24355309  0.67228104     0.19100
H1087       H  0.71834751  0.21647967  0.67129388     0.19000
H1088       H  0.67521715  0.26662890  0.65806430     0.14900
C1089       C  0.34843082  0.09000861  0.63657689     0.30300
C1090       C  0.33612376  0.09123953  0.64198402    -0.36000
C1091       C  0.33411773  0.10164491  0.65064559     0.16300
C1092       C  0.34351390  0.11032525  0.65348972     0.22100
C1093       C  0.35577756  0.10902996  0.64822543    -0.34200
C1094       C  0.35782671  0.09855392  0.63982646     0.16200
O1095       O  0.35253083  0.08101726  0.62832277    -0.26200
C1096       C  0.36473139  0.08381510  0.62646776     0.06000
C1097       C  0.36851875  0.09460836  0.63340883    -0.31100
O1098       O  0.33958176  0.11953589  0.66142378    -0.22900
C1099       C  0.32755190  0.11667885  0.66395924    -0.02900
C1100       C  0.32359077  0.10560557  0.65758023    -0.17300
H1101       H  0.32868586  0.08456299  0.63965313     0.20700
H1102       H  0.36320215  0.11570811  0.65054185     0.19100
H1103       H  0.37777470  0.09897324  0.63360896     0.19000
H1104       H  0.31427754  0.10133257  0.65773966     0.14900
C1105       C  0.64534398  0.10849279  0.64309143     0.30300
C1106       C  0.63310195  0.10825891  0.63763565    -0.36000
C1107       C  0.62981473  0.09736146  0.63039370     0.16300
C1108       C  0.63805474  0.08739618  0.62839773     0.22100
C1109       C  0.65029892  0.08753363  0.63409008    -0.34200
C1110       C  0.65353995  0.09841226  0.64157287     0.16200
O1111       O  0.65047191  0.11802985  0.64967420    -0.26200
C1112       C  0.66207266  0.11402533  0.65267069     0.06000
C1113       C  0.66452207  0.10182165  0.64798949    -0.31100
O1114       O  0.63305720  0.07838943  0.62075539    -0.22900
C1115       C  0.62141766  0.08261659  0.61806882    -0.02900
C1116       C  0.61890428  0.09433642  0.62385903    -0.17300
H1117       H  0.62662462  0.11613145  0.63881023     0.20700
H1118       H  0.65687676  0.07978271  0.63265687     0.19100
H1119       H  0.67327371  0.09651138  0.64866590     0.19000
H1120       H  0.61035472  0.09995484  0.62309109     0.14900
C1121       C  0.48034172  0.06355387  0.58220441     0.30300
C1122       C  0.49068714  0.06273276  0.57336077    -0.36000
C1123       C  0.50254637  0.06517562  0.57906469     0.16300
C1124       C  0.50421840  0.06817408  0.59259069     0.22100
C1125       C  0.49378949  0.06907501  0.60148267    -0.34200
C1126       C  0.48182789  0.06670584  0.59572352     0.16200
O1127       O  0.46847834  0.06137738  0.57895458    -0.26200
C1128       C  0.46215489  0.06325179  0.59046072     0.06000
C1129       C  0.46993491  0.06664082  0.60128790    -0.31100
O1130       O  0.51629504  0.06980223  0.59571328    -0.22900
C1131       C  0.52233545  0.06784363  0.58398912    -0.02900
C1132       C  0.51422016  0.06496697  0.57332384    -0.17300
H1133       H  0.48956465  0.06025698  0.56272817     0.20700
H1134       H  0.49492519  0.07138237  0.61213043     0.19100
H1135       H  0.46725976  0.06849995  0.61171749     0.19000
H1136       H  0.51656641  0.06284682  0.56284198     0.14900
C1137       C  0.37664872  0.99665312  0.50226491     0.30300
C1138       C  0.37137419  0.99996400  0.51494233    -0.36000
C1139       C  0.37705865  0.01026252  0.52166029     0.16300
C1140       C  0.38724360  0.01673866  0.51624558     0.22100
C1141       C  0.39230988  0.01362059  0.50355383    -0.34200
C1142       C  0.38666357  0.00341129  0.49690411     0.16200
O1143       O  0.37372404  0.98667448  0.49475421    -0.26200
C1144       C  0.38202434  0.98714945  0.48453027     0.06000
C1145       C  0.39018625  0.99742195  0.48535021    -0.31100
O1146       O  0.39195162  0.02514777  0.52466430    -0.22900
C1147       C  0.38462244  0.02428078  0.53560563    -0.02900
C1148       C  0.37509805  0.01524158  0.53433414    -0.17300
H1149       H  0.36376742  0.99456820  0.51950458     0.20700
H1150       H  0.40050819  0.01845799  0.49942552     0.19100
H1151       H  0.39807644  0.99976265  0.47876118     0.19000
H1152       H  0.36833838  0.01221164  0.54194193     0.14900
C1153       C  0.59034590  0.00480237  0.48743181     0.30300
C1154       C  0.58424928  0.01521387  0.49324841    -0.36000
C1155       C  0.58993623  0.02030890  0.50482214     0.16300
C1156       C  0.60094419  0.01559664  0.51040991     0.22100
C1157       C  0.60725290  0.00523773  0.50436559    -0.34200
C1158       C  0.60149772  0.00005288  0.49268011     0.16200
O1159       O  0.58582243  0.99791187  0.47745256    -0.26200
C1160       C  0.59417046  0.98860538  0.47602295     0.06000
C1161       C  0.60425394  0.98947309  0.48514007    -0.31100
O1162       O  0.60389752  0.02132252  0.52198380    -0.22900
C1163       C  0.59460974  0.02976405  0.52369252    -0.02900
C1164       C  0.58577000  0.02954132  0.51323991    -0.17300
H1165       H  0.57532435  0.01873886  0.48937253     0.20700
H1166       H  0.61571396  0.00118404  0.50877079     0.19100
H1167       H  0.61190580  0.98281440  0.48664911     0.19000
H1168       H  0.57716548  0.03502430  0.51222324     0.14900
C1169       C  0.49765050  0.94058785  0.44164042     0.30300
C1170       C  0.48681124  0.94744187  0.44515239    -0.36000
C1171       C  0.47524628  0.94200383  0.44151930     0.16300
C1172       C  0.47426398  0.93054537  0.43490664     0.22100
C1173       C  0.48520048  0.92364337  0.43132791    -0.34200
C1174       C  0.49688138  0.92913765  0.43495498     0.16200
O1175       O  0.50938207  0.94409419  0.44402300    -0.26200
C1176       C  0.51636153  0.93483156  0.43880722     0.06000
C1177       C  0.50911812  0.92521555  0.43301468    -0.31100
O1178       O  0.46231721  0.92729135  0.43269302    -0.22900
C1179       C  0.45568575  0.93686276  0.43795488    -0.02900
C1180       C  0.46329533  0.94623869  0.44352815    -0.17300
H1181       H  0.48736280  0.95645417  0.45037114     0.20700
H1182       H  0.48464836  0.91464816  0.42609666     0.19100
H1183       H  0.51237963  0.91668962  0.42803029     0.19000
H1184       H  0.46047010  0.95492821  0.44850577     0.14900
C1185       C  0.00023516  0.94624732  0.09264869     0.30300
C1186       C  0.98959964  0.95296874  0.08827736    -0.36000
C1187       C  0.97790503  0.94712146  0.09039679     0.16300
C1188       C  0.97662663  0.93541091  0.09641350     0.22100
C1189       C  0.98736641  0.92860838  0.10081019    -0.34200
C1190       C  0.99918504  0.93449719  0.09865352     0.16200
O1191       O  0.01201259  0.95014570  0.09168072    -0.26200
C1192       C  0.01876249  0.94082175  0.09707345     0.06000
C1193       C  0.01131617  0.93075924  0.10158918    -0.31100
O1194       O  0.96461967  0.93182579  0.09724616    -0.22900
C1195       C  0.95825033  0.94142111  0.09167564    -0.02900
C1196       C  0.96608265  0.95115131  0.08727882    -0.17300
H1197       H  0.99039802  0.96218080  0.08353132     0.20700
H1198       H  0.98656977  0.91939945  0.10555311     0.19100
H1199       H  0.01437045  0.92208046  0.10641396     0.19000
H1200       H  0.96348264  0.95994301  0.08238655     0.14900
C1201       C  0.13597299  0.11433359  0.88958619     0.30300
C1202       C  0.12677985  0.11374017  0.89983503    -0.36000
C1203       C  0.12404087  0.10165900  0.90482927     0.16300
C1204       C  0.13004676  0.09085859  0.90025665     0.22100
C1205       C  0.13925705  0.09145395  0.88993602    -0.34200
C1206       C  0.14188334  0.10357039  0.88478453     0.16200
O1207       O  0.13972452  0.12464952  0.88327478    -0.26200
C1208       C  0.14811032  0.12048521  0.87423099     0.06000
C1209       C  0.14983641  0.10743562  0.87466453    -0.31100
O1210       O  0.12566211  0.08051759  0.90616527    -0.22900
C1211       C  0.11668902  0.08483812  0.91448331    -0.02900
C1212       C  0.11525568  0.09787257  0.91404440    -0.17300
H1213       H  0.12192611  0.12208746  0.90347460     0.20700
H1214       H  0.14385615  0.08306812  0.88602624     0.19100
H1215       H  0.15599577  0.10166301  0.86842923     0.19000
H1216       H  0.10850549  0.10365732  0.91952149     0.14900
C1217       C  0.10201711  0.00575386  0.04403987     0.30300
C1218       C  0.10833765  0.00956573  0.03208025    -0.36000
C1219       C  0.10326076  0.02018701  0.02535007     0.16300
C1220       C  0.09277564  0.02658745  0.03018058     0.22100
C1221       C  0.08668499  0.02298557  0.04220298    -0.34200
C1222       C  0.09164156  0.01237145  0.04878085     0.16200
O1223       O  0.10416339  0.99534569  0.05118330    -0.26200
C1224       C  0.09498132  0.99537473  0.06052464     0.06000
C1225       C  0.08701184  0.00579348  0.05951116    -0.31100
O1226       O  0.08863607  0.03521113  0.02166080    -0.22900
C1227       C  0.09655604  0.03450260  0.01118174    -0.02900
C1228       C  0.10598395  0.02540588  0.01293280    -0.17300
H1229       H  0.11617671  0.00423503  0.02792523     0.20700
H1230       H  0.07819449  0.02767464  0.04573831     0.19100
H1231       H  0.07858871  0.00787657  0.06537710     0.19000
H1232       H  0.11310458  0.02240667  0.00569785     0.14900
C1233       C  0.85218118  0.09895006  0.89559055     0.30300
C1234       C  0.84076209  0.09973218  0.88827064    -0.36000
C1235       C  0.83909215  0.11069016  0.88036660     0.16300
C1236       C  0.84794514  0.12029110  0.87994650     0.22100
C1237       C  0.85937094  0.11944597  0.88710413    -0.34200
C1238       C  0.86112774  0.10843476  0.89476352     0.16200
O1239       O  0.85579484  0.08960709  0.90364395    -0.26200
C1240       C  0.86727109  0.09313286  0.90781753     0.06000
C1241       C  0.87105337  0.10473622  0.90256462    -0.31100
O1242       O  0.84441802  0.12978314  0.87216602    -0.22900
C1243       C  0.83323174  0.12619338  0.86732397    -0.02900
C1244       C  0.82943100  0.11436121  0.87201732    -0.17300
H1245       H  0.83370960  0.09230752  0.88866162     0.20700
H1246       H  0.86644184  0.12685530  0.88668106     0.19100
H1247       H  0.87979323  0.10981092  0.90439044     0.19000
H1248       H  0.82077243  0.10931065  0.86974247     0.14900
C1249       C  0.87433756  0.01949330  0.01256125     0.30300
C1250       C  0.86977592  0.00735881  0.01593513    -0.36000
C1251       C  0.87395402  0.00234122  0.02842570     0.16300
C1252       C  0.88205433  0.00886108  0.03691185     0.22100
C1253       C  0.88627411  0.02104455  0.03375454    -0.34200
C1254       C  0.88216143  0.02599145  0.02134833     0.16200
O1255       O  0.87312379  0.02533306  0.00071344    -0.26200
C1256       C  0.88029768  0.03564257  0.00204147     0.06000
C1257       C  0.88597724  0.03655856  0.01472919    -0.31100
O1258       O  0.88608096  0.00196842  0.04715804    -0.22900
C1259       C  0.88036024  0.99089774  0.04547427    -0.02900
C1260       C  0.87257569  0.99056573  0.03404328    -0.17300
H1261       H  0.86402163  0.00192313  0.00897649     0.20700
H1262       H  0.89296502  0.02600694  0.04013626     0.19100
H1263       H  0.89275482  0.04351389  0.01820547     0.19000
H1264       H  0.86749880  0.98255488  0.02992629     0.14900
C1265       C  0.00198474  0.07633089  0.96088116     0.30300
C1266       C  0.99109020  0.07602821  0.96900668    -0.36000
C1267       C  0.97965372  0.07856480  0.96237766     0.16300
C1268       C  0.97893759  0.08129109  0.94868272     0.22100
C1269       C  0.98989736  0.08175448  0.94055759    -0.34200
C1270       C  0.00137814  0.07914323  0.94719734     0.16200
O1271       O  0.01354243  0.07359542  0.96490343    -0.26200
C1272       C  0.02050207  0.07470420  0.95369992     0.06000
C1273       C  0.01346571  0.07817472  0.94233761    -0.31100
O1274       O  0.96712588  0.08246355  0.94445548    -0.22900
C1275       C  0.96024411  0.08042557  0.95560035    -0.02900
C1276       C  0.96755641  0.07805413  0.96705450    -0.17300
H1277       H  0.99146628  0.07358773  0.97969545     0.20700
H1278       H  0.98946127  0.08362266  0.92975357     0.19100
H1279       H  0.01671392  0.07946464  0.93199738     0.19000
H1280       H  0.96441435  0.07571698  0.97723184     0.14900
C1281       C  0.85758871  0.60069829  0.13171529     0.30300
C1282       C  0.85718044  0.61203901  0.13905414    -0.36000
C1283       C  0.84646112  0.61389218  0.14721680     0.16300
C1284       C  0.83683448  0.60512015  0.14831332     0.22100
C1285       C  0.83720266  0.59375962  0.14086533    -0.34200
C1286       C  0.84788193  0.59198122  0.13249260     0.16200
O1287       O  0.86674031  0.59713180  0.12344681    -0.26200
C1288       C  0.86284520  0.58603578  0.11867315     0.06000
C1289       C  0.85113999  0.58233921  0.12391182    -0.31100
O1290       O  0.82766792  0.60893602  0.15654141    -0.22900
C1291       C  0.83146813  0.62034549  0.16059705    -0.02900
C1292       C  0.84307074  0.62388809  0.15508859    -0.17300
H1293       H  0.86467337  0.61901046  0.13834665     0.20700
H1294       H  0.82964234  0.58685970  0.14144777     0.19100
H1295       H  0.84591265  0.57374781  0.12185527     0.19000
H1296       H  0.84821963  0.63263090  0.15659206     0.14900
C1297       C  0.84098163  0.87904288  0.13685029     0.30300
C1298       C  0.85252431  0.87966507  0.12982248    -0.36000
C1299       C  0.85452458  0.89057687  0.12205077     0.16300
C1300       C  0.84570128  0.90016819  0.12104674     0.22100
C1301       C  0.83414023  0.89956866  0.12814953    -0.34200
C1302       C  0.83222051  0.88871555  0.13613342     0.16200
O1303       O  0.83726781  0.86974253  0.14480772    -0.26200
C1304       C  0.82603651  0.87352306  0.14941780     0.06000
C1305       C  0.82240065  0.88528892  0.14440651    -0.31100
O1306       O  0.84971276  0.90961301  0.11337520    -0.22900
C1307       C  0.86129711  0.90604510  0.10957109    -0.02900
C1308       C  0.86476717  0.89428838  0.11467038    -0.17300
H1309       H  0.85954598  0.87222301  0.13052295     0.20700
H1310       H  0.82722316  0.90711542  0.12765493     0.19100
H1311       H  0.81374969  0.89046123  0.14643134     0.19000
H1312       H  0.87363941  0.88929638  0.11331252     0.14900
C1313       C  0.79502738  0.75903364  0.18739010     0.30300
C1314       C  0.78848398  0.74822483  0.19154876    -0.36000
C1315       C  0.79403206  0.73667368  0.18810831     0.16300
C1316       C  0.80533872  0.73569294  0.18112942     0.22100
C1317       C  0.81198749  0.74660252  0.17700088    -0.34200
C1318       C  0.80634728  0.75827165  0.18038244     0.16200
O1319       O  0.79120492  0.77072224  0.18924300    -0.26200
C1320       C  0.80012333  0.77769545  0.18337488     0.06000
C1321       C  0.80985892  0.77048958  0.17768534    -0.31100
O1322       O  0.80857216  0.72377383  0.17886552    -0.22900
C1323       C  0.79913802  0.71715872  0.18444725    -0.02900
C1324       C  0.78988346  0.72474191  0.19033161    -0.17300
H1325       H  0.77954276  0.74879060  0.19693693     0.20700
H1326       H  0.82081312  0.74603591  0.17140351     0.19100
H1327       H  0.81814487  0.77375026  0.17221754     0.19000
H1328       H  0.78127203  0.72190962  0.19548719     0.14900
C1329       C  0.63297750  0.61360813  0.38100145     0.30300
C1330       C  0.62079333  0.61206505  0.38644448    -0.36000
C1331       C  0.61860997  0.60076419  0.39348547     0.16300
C1332       C  0.62781867  0.59163913  0.39522217     0.22100
C1333       C  0.63998339  0.59309506  0.38957729    -0.34200
C1334       C  0.64212816  0.60436428  0.38236492     0.16200
O1335       O  0.63711743  0.62360190  0.37436470    -0.26200
C1336       C  0.64903053  0.62069864  0.37123341     0.06000
C1337       C  0.65267651  0.60880597  0.37587389    -0.31100
O1338       O  0.62379837  0.58203162  0.40264008    -0.22900
C1339       C  0.61182770  0.58501168  0.40554173    -0.02900
C1340       C  0.60808243  0.59652810  0.40004405    -0.17300
H1341       H  0.61354472  0.61924542  0.38537149     0.20700
H1342       H  0.64728391  0.58600276  0.39082284     0.19100
H1343       H  0.66182644  0.60426653  0.37490080     0.19000
H1344       H  0.59901062  0.60123216  0.40100403     0.14900
C1345       C  0.74738460  0.63925022  0.25633811     0.30300
C1346       C  0.74203183  0.63202196  0.26700418    -0.36000
C1347       C  0.73352195  0.63849459  0.27568767     0.16300
C1348       C  0.73067519  0.65112025  0.27387835     0.22100
C1349       C  0.73593389  0.65822268  0.26338225    -0.34200
C1350       C  0.74425548  0.65182522  0.25482276     0.16200
O1351       O  0.75547900  0.63539841  0.24683404    -0.26200
C1352       C  0.75735962  0.64573227  0.23926025     0.06000
C1353       C  0.75059452  0.65614275  0.24387832    -0.31100
O1354       O  0.72268996  0.65548458  0.28291540    -0.22900
C1355       C  0.72017274  0.64564341  0.29080732    -0.02900
C1356       C  0.72661824  0.63469411  0.28684483    -0.17300
H1357       H  0.74428676  0.62214344  0.26840061     0.20700
H1358       H  0.73364931  0.66810189  0.26196455     0.19100
H1359       H  0.75031535  0.66563111  0.23981140     0.19000
H1360       H  0.72631767  0.62543568  0.29149329     0.14900
C1361       C  0.63269627  0.88040763  0.37751591     0.30300
C1362       C  0.62140708  0.88078900  0.38504096    -0.36000
C1363       C  0.61923787  0.89184149  0.39254434     0.16300
C1364       C  0.62768084  0.90179799  0.39283165     0.22100
C1365       C  0.63894608  0.90147278  0.38515568    -0.34200
C1366       C  0.64103010  0.89046220  0.37744776     0.16200
O1367       O  0.63659630  0.87093695  0.36988758    -0.26200
C1368       C  0.64749904  0.87498419  0.36466059     0.06000
C1369       C  0.65073633  0.88710950  0.36894789    -0.31100
O1370       O  0.62375390  0.91114150  0.40071777    -0.22900
C1371       C  0.61258754  0.90714542  0.40538703    -0.02900
C1372       C  0.60930232  0.89522124  0.40059057    -0.17300
H1373       H  0.61474315  0.87299730  0.38501559     0.20700
H1374       H  0.64558679  0.90926559  0.38515469     0.19100
H1375       H  0.65909919  0.89252770  0.36638256     0.19000
H1376       H  0.60083292  0.88980065  0.40277223     0.14900
C1377       C  0.71997019  0.86195080  0.25783720     0.30300
C1378       C  0.73064052  0.86797896  0.25202936    -0.36000
C1379       C  0.73570003  0.86230509  0.24019151     0.16300
C1380       C  0.73055631  0.85148701  0.23461733     0.22100
C1381       C  0.71982920  0.84573641  0.24014669    -0.34200
C1382       C  0.71484538  0.85134979  0.25181749     0.16200
O1383       O  0.71446460  0.86457876  0.26966735    -0.26200
C1384       C  0.70575973  0.85548706  0.27105039     0.06000
C1385       C  0.70555449  0.84717600  0.26012746    -0.31100
O1386       O  0.73733393  0.84689819  0.22456211    -0.22900
C1387       C  0.74695609  0.85489028  0.22335549    -0.02900
C1388       C  0.74643524  0.86479370  0.23273514    -0.17300
H1389       H  0.73504201  0.87610293  0.25674712     0.20700
H1390       H  0.71601118  0.83704977  0.23602270     0.19100
H1391       H  0.69990667  0.83872090  0.25885229     0.19000
H1392       H  0.75335857  0.87217302  0.23439944     0.14900
C1393       C  0.66387554  0.76072135  0.33644957     0.30300
C1394       C  0.66066980  0.75039967  0.34482795    -0.36000
C1395       C  0.66312381  0.73831203  0.33943661     0.16300
C1396       C  0.66838764  0.73661205  0.32671475     0.22100
C1397       C  0.67143239  0.74685771  0.31833402    -0.34200
C1398       C  0.66901329  0.75885148  0.32370474     0.16200
O1399       O  0.66285104  0.77285524  0.33951833    -0.26200
C1400       C  0.66740891  0.77874610  0.32857061     0.06000
C1401       C  0.67135403  0.77047606  0.31843758    -0.31100
O1402       O  0.67072646  0.72468335  0.32397262    -0.22900
C1403       C  0.66685370  0.71852104  0.33498688    -0.02900
C1404       C  0.66191746  0.72648366  0.34496598    -0.17300
H1405       H  0.65681735  0.75170443  0.35492987     0.20700
H1406       H  0.67572404  0.74556304  0.30842236     0.19100
H1407       H  0.67550363  0.77268315  0.30865203     0.19000
H1408       H  0.65858564  0.72399517  0.35502162     0.14900
C1409       C  0.33088073  0.88706343  0.38615978     0.30300
C1410       C  0.33180669  0.89877536  0.39289051    -0.36000
C1411       C  0.34247633  0.90040344  0.40127230     0.16300
C1412       C  0.35168716  0.89122753  0.40268065     0.22100
C1413       C  0.35072138  0.87954193  0.39605449    -0.34200
C1414       C  0.34000128  0.87785116  0.38788325     0.16200
O1415       O  0.32153337  0.88328511  0.37818885    -0.26200
C1416       C  0.32469660  0.87146507  0.37490833     0.06000
C1417       C  0.33610323  0.86762989  0.38064460    -0.31100
O1418       O  0.36105433  0.89481691  0.41062007    -0.22900
C1419       C  0.35777711  0.90639003  0.41456524    -0.02900
C1420       C  0.34625397  0.91036556  0.40914249    -0.17300
H1421       H  0.32466891  0.90604073  0.39177706     0.20700
H1422       H  0.35781559  0.87223035  0.39725706     0.19100
H1423       H  0.34074160  0.85852890  0.37981280     0.19000
H1424       H  0.34158976  0.91939528  0.41044784     0.14900
C1425       C  0.33309025  0.60288847  0.37929310     0.30300
C1426       C  0.33398218  0.59121827  0.38607795    -0.36000
C1427       C  0.34459350  0.58963634  0.39453507     0.16300
C1428       C  0.35379208  0.59880519  0.39601904     0.22100
C1429       C  0.35285739  0.61047937  0.38932481    -0.34200
C1430       C  0.34218081  0.61212000  0.38103854     0.16200
O1431       O  0.32384614  0.60654806  0.37113061    -0.26200
C1432       C  0.32704087  0.61831271  0.36770595     0.06000
C1433       C  0.33835559  0.62224963  0.37358721    -0.31100
O1434       O  0.36302748  0.59525350  0.40419354    -0.22900
C1435       C  0.35963470  0.58371670  0.40817913    -0.02900
C1436       C  0.34821911  0.57973708  0.40253342    -0.17300
H1437       H  0.32687771  0.58395312  0.38494086     0.20700
H1438       H  0.35990992  0.61779144  0.39055412     0.19100
H1439       H  0.34301871  0.63131181  0.37263591     0.19000
H1440       H  0.34345440  0.57078276  0.40389959     0.14900
C1441       C  0.28442643  0.75570362  0.35480488     0.30300
C1442       C  0.27740391  0.74481412  0.35200944    -0.36000
C1443       C  0.28383881  0.73333886  0.35335580     0.16300
C1444       C  0.29636844  0.73249501  0.35722893     0.22100
C1445       C  0.30340748  0.74346849  0.36023770    -0.34200
C1446       C  0.29693532  0.75505700  0.35883497     0.16200
O1447       O  0.28035046  0.76737846  0.35342319    -0.26200
C1448       C  0.29030373  0.77444601  0.35663868     0.06000
C1449       C  0.30092436  0.76731365  0.36017165    -0.31100
O1450       O  0.30056563  0.72068371  0.35706175    -0.22900
C1451       C  0.29052788  0.71399042  0.35303926    -0.02900
C1452       C  0.27989643  0.72141942  0.35068104    -0.17300
H1453       H  0.26764144  0.74527953  0.34863261     0.20700
H1454       H  0.31330531  0.74302760  0.36311146     0.19100
H1455       H  0.31027826  0.77065545  0.36288746     0.19000
H1456       H  0.27064308  0.71853422  0.34709956     0.14900
C1457       C  0.13389523  0.61728798  0.14252036     0.30300
C1458       C  0.12318810  0.61690726  0.13415621    -0.36000
C1459       C  0.12173475  0.60601132  0.12626124     0.16300
C1460       C  0.13027756  0.59613647  0.12638551     0.22100
C1461       C  0.14104057  0.59648197  0.13487947    -0.34200
C1462       C  0.14243179  0.60740745  0.14296924     0.16200
O1463       O  0.13695514  0.62664128  0.15068844    -0.26200
C1464       C  0.14756974  0.62279181  0.15664157     0.06000
C1465       C  0.15144588  0.61082981  0.15229930    -0.31100
O1466       O  0.12676954  0.58677818  0.11826338    -0.22900
C1467       C  0.11579359  0.59075552  0.11304887    -0.02900
C1468       C  0.11225703  0.60264804  0.11768116    -0.17300
H1469       H  0.11638948  0.62453939  0.13392260     0.20700
H1470       H  0.14774609  0.58875963  0.13526468     0.19100
H1471       H  0.15972605  0.60554458  0.15541620     0.19000
H1472       H  0.10380272  0.60795662  0.11525272     0.14900
C1473       C  0.23434762  0.63533331  0.28275395     0.30300
C1474       C  0.23139318  0.63046527  0.26977722    -0.36000
C1475       C  0.22054090  0.63555942  0.26344393     0.16300
C1476       C  0.21321189  0.64476165  0.26955855     0.22100
C1477       C  0.21606508  0.64948825  0.28244686    -0.34200
C1478       C  0.22681329  0.64446424  0.28868629     0.16200
O1479       O  0.24447718  0.63271944  0.29020816    -0.26200
C1480       C  0.24330748  0.64034405  0.30095571     0.06000
C1481       C  0.23245102  0.64775406  0.30051360    -0.31100
O1482       O  0.20393110  0.64873103  0.26178895    -0.22900
C1483       C  0.20511645  0.64200772  0.25046273    -0.06100
C1484       C  0.21529086  0.63357450  0.25086184    -0.17300
H1485       H  0.23732563  0.62348807  0.26481435     0.20700
H1486       H  0.21046388  0.65690181  0.28713973     0.19100
H1487       H  0.22942139  0.65498342  0.30761348     0.19000
H1488       H  0.21855890  0.62726297  0.24293582     0.14900
C1489       C  0.12978197  0.90366320  0.13784966     0.30300
C1490       C  0.14078073  0.90269678  0.14584913    -0.36000
C1491       C  0.14253274  0.89115388  0.15269213     0.16300
C1492       C  0.13411450  0.88122226  0.15155976     0.22100
C1493       C  0.12308471  0.88224274  0.14374244    -0.34200
C1494       C  0.12127524  0.89378303  0.13705608     0.16200
O1495       O  0.12614595  0.91357383  0.13064025    -0.26200
C1496       C  0.11511550  0.90998222  0.12530974     0.06000
C1497       C  0.11164291  0.89777457  0.12898864    -0.31100
O1498       O  0.13774909  0.87115983  0.15839695    -0.22900
C1499       C  0.14857992  0.87467167  0.16415099    -0.02900
C1500       C  0.15200893  0.88705755  0.16105665    -0.17300
H1501       H  0.14749956  0.91040349  0.14668299     0.20700
H1502       H  0.11636062  0.87452886  0.14291013     0.19100
H1503       H  0.10319344  0.89259316  0.12615859     0.19000
H1504       H  0.16038693  0.89216085  0.16423546     0.14900
C1505       C  0.21072158  0.84748194  0.27673841     0.30300
C1506       C  0.21399259  0.84150943  0.28890079    -0.36000
C1507       C  0.22472293  0.84617551  0.29549792     0.16300
C1508       C  0.23181642  0.85614447  0.29060206     0.22100
C1509       C  0.22842893  0.86226994  0.27839842    -0.34200
C1510       C  0.21764116  0.85751219  0.27168129     0.16200
O1511       O  0.20158349  0.84390966  0.26855097    -0.26200
C1512       C  0.20249032  0.85172038  0.25802881     0.06000
C1513       C  0.21228393  0.86048480  0.25940100    -0.31100
O1514       O  0.24201528  0.85829340  0.29810943    -0.22900
C1515       C  0.24135916  0.84951847  0.30783811    -0.02900
C1516       C  0.23075761  0.84181390  0.30668967    -0.17300
H1517       H  0.20876868  0.83341383  0.29271597     0.20700
H1518       H  0.23405442  0.86990234  0.27419449     0.19100
H1519       H  0.21536853  0.86755351  0.25216029     0.19000
H1520       H  0.22811094  0.83378452  0.31291741     0.14900
C1521       C  0.16067142  0.75891068  0.20940596     0.30300
C1522       C  0.16110907  0.74800974  0.21747354    -0.36000
C1523       C  0.15938922  0.73651496  0.21066792     0.16300
C1524       C  0.15734401  0.73573667  0.19684488     0.22100
C1525       C  0.15688215  0.74668506  0.18874646    -0.34200
C1526       C  0.15862087  0.75822997  0.19557457     0.16200
O1527       O  0.16221207  0.77059552  0.21370634    -0.26200
C1528       C  0.16110847  0.77756621  0.20252543     0.06000
C1529       C  0.15887089  0.77039020  0.19090291    -0.31100
O1530       O  0.15630807  0.72392295  0.19260137    -0.22900
C1531       C  0.15774461  0.71709073  0.20387252    -0.02900
C1532       C  0.15965396  0.72445342  0.21539808    -0.17300
H1533       H  0.16280224  0.74845651  0.22833528     0.20700
H1534       H  0.15539390  0.74622678  0.17786606     0.19100
H1535       H  0.15769858  0.77363902  0.18055220     0.19000
H1536       H  0.16124887  0.72136479  0.22575770     0.14900
loop_ 
_geom_bond_atom_site_label_1 
_geom_bond_atom_site_label_2 
_geom_bond_distance 
_geom_bond_site_symmetry_2 
_ccdc_geom_bond_type 
N1            N2   1.322       .  A
N1            C5   1.353       .  A
N1           Cu9   2.091       .  S
N2            C3   1.339       .  A
N2           Cu8   2.063       .  S
C3            C4   1.378       .  A
C3            H6   1.081       .  S
C4            C5   1.389       .  A
C4         C1512   1.473       .  S
C5            H7   1.082       .  S
Cu8          N11   2.064       .  S
Cu9          N19   2.092       .  S
Cu10         N12   2.075       .  S
Cu10         N18   2.078       .  S
N11          N12   1.319       .  A
N11          C15   1.343       .  A
N12          C13   1.349       .  A
C13          C14   1.387       .  A
C13          H16   1.082       .  S
C14          C15   1.381       .  A
C14        C1528   1.473       .  S
C15          H17   1.081       .  S
N18          N19   1.326       .  A
N18          C22   1.343       .  A
N19          C20   1.349       .  A
C20          C21   1.385       .  A
C20          H23   1.082       .  S
C21          C22   1.379       .  A
C21        C1499   1.472       .  S
C22          H24   1.081       .  S
N25          N26   1.323       .  A
N25          C29   1.355       .  A
N25         Cu33   2.101       .  S
N26          C27   1.338       .  A
N26         Cu32   2.060       .  S
C27          C28   1.377       .  A
C27          H30   1.082       .  S
C28          C29   1.391       .  A
C28        C1483   1.474       .  S
C29          H31   1.082       .  S
Cu32         N35   2.059       .  S
Cu33         N43   2.102       .  S
Cu34         N36   2.080       .  S
Cu34         N42   2.083       .  S
N35          N36   1.319       .  A
N35          C39   1.342       .  A
N36          C37   1.349       .  A
C37          C38   1.387       .  A
C37          H40   1.082       .  S
C38          C39   1.383       .  A
C38        C1531   1.475       .  S
C39          H41   1.081       .  S
N42          N43   1.326       .  A
N42          C46   1.343       .  A
N43          C44   1.353       .  A
C44          C45   1.388       .  A
C44          H47   1.081       .  S
C45          C46   1.380       .  A
C45        C1464   1.477       .  S
C46          H48   1.082       .  S
N49          N50   1.321       .  A
N49          C53   1.353       .  A
N49         Cu57   2.095       .  S
N50          C51   1.339       .  A
N50         Cu56   2.061       .  S
C51          C52   1.381       .  A
C51          H54   1.081       .  S
C52          C53   1.390       .  A
C52        C1480   1.477       .  S
C53          H55   1.082       .  S
Cu56         N59   2.062       .  S
Cu57         N67   2.098       .  S
Cu58         N60   2.080       .  S
Cu58         N66   2.082       .  S
N59          N60   1.319       .  A
N59          C63   1.340       .  A
N60          C61   1.351       .  A
C61          C62   1.388       .  A
C61          H64   1.082       .  S
C62          C63   1.383       .  A
C62        C1451   1.477       .  S
C63          H65   1.082       .  S
N66          N67   1.326       .  A
N66          C70   1.343       .  A
N67          C68   1.350       .  A
C68          C69   1.386       .  A
C68          H71   1.081       .  S
C69          C70   1.381       .  A
C69        C1432   1.476       .  S
C70          H72   1.081       .  S
N73          N74   1.322       .  A
N73          C77   1.353       .  A
N73         Cu81   2.097       .  S
N74          C75   1.340       .  A
N74         Cu80   2.065       .  S
C75          C76   1.381       .  A
C75          H78   1.081       .  S
C76          C77   1.390       .  A
C76        C1515   1.478       .  S
C77          H79   1.082       .  S
Cu80         N83   2.065       .  S
Cu81         N91   2.099       .  S
Cu82         N84   2.081       .  S
Cu82         N90   2.083       .  S
N83          N84   1.320       .  A
N83          C87   1.342       .  A
N84          C85   1.350       .  A
C85          C86   1.388       .  A
C85          H88   1.082       .  S
C86          C87   1.381       .  A
C86        C1448   1.473       .  S
C87          H89   1.082       .  S
N90          N91   1.326       .  A
N90          C94   1.344       .  A
N91          C92   1.351       .  A
C92          C93   1.386       .  A
C92          H95   1.081       .  S
C93          C94   1.382       .  A
C93        C1416   1.476       .  S
C94          H96   1.082       .  S
N97          N98   1.322       .  A
N97         C101   1.357       .  A
N97        Cu105   2.105       .  S
N98          C99   1.336       .  A
N98        Cu104   2.059       .  S
C99         C100   1.379       .  A
C99         H102   1.081       .  S
C100        C101   1.393       .  A
C100       C1384   1.481       .  S
C101        H103   1.082       .  S
Cu104       N107   2.060       .  S
Cu105       N115   2.107       .  S
Cu106       N108   2.073       .  S
Cu106       N114   2.076       .  S
N107        N108   1.318       .  A
N107        C111   1.342       .  A
N108        C109   1.348       .  A
C109        C110   1.386       .  A
C109        H112   1.082       .  S
C110        C111   1.384       .  A
C110       C1400   1.474       .  S
C111        H113   1.082       .  S
N114        N115   1.327       .  A
N114        C118   1.342       .  A
N115        C116   1.352       .  A
C116        C117   1.388       .  A
C116        H119   1.082       .  S
C117        C118   1.377       .  A
C117       C1368   1.474       .  S
C118        H120   1.082       .  S
N121        N122   1.320       .  A
N121        C125   1.356       .  A
N121       Cu129   2.094       .  S
N122        C123   1.334       .  A
N122       Cu128   2.046       .  S
C123        C124   1.376       .  A
C123        H126   1.081       .  S
C124        C125   1.393       .  A
C124       C1355   1.472       .  S
C125        H127   1.081       .  S
Cu128       N131   2.046       .  S
Cu129       N139   2.098       .  S
Cu130       N132   2.086       .  S
Cu130       N138   2.090       .  S
N131        N132   1.318       .  A
N131        C135   1.338       .  A
N132        C133   1.353       .  A
C133        C134   1.391       .  A
C133        H136   1.082       .  S
C134        C135   1.377       .  A
C134       C1403   1.471       .  S
C135        H137   1.082       .  S
N138        N139   1.329       .  A
N138        C142   1.344       .  A
N139        C140   1.349       .  A
C140        C141   1.384       .  A
C140        H143   1.082       .  S
C141        C142   1.379       .  A
C141       C1336   1.471       .  S
C142        H144   1.082       .  S
N145        N146   1.322       .  A
N145        C149   1.354       .  A
N145       Cu153   2.093       .  S
N146        C147   1.340       .  A
N146       Cu152   2.064       .  S
C147        C148   1.379       .  A
C147        H150   1.081       .  S
C148        C149   1.390       .  A
C148       C1387   1.474       .  S
C149        H151   1.082       .  S
Cu152       N155   2.064       .  S
Cu153       N163   2.096       .  S
Cu154       N156   2.076       .  S
Cu154       N162   2.078       .  S
N155        N156   1.320       .  A
N155        C159   1.340       .  A
N156        C157   1.351       .  A
C157        C158   1.388       .  A
C157        H160   1.083       .  S
C158        C159   1.380       .  A
C158       C1320   1.472       .  S
C159        H161   1.082       .  S
N162        N163   1.326       .  A
N162        C166   1.343       .  A
N163        C164   1.349       .  A
C164        C165   1.385       .  A
C164        H167   1.082       .  S
C165        C166   1.379       .  A
C165       C1304   1.471       .  S
C166        H168   1.082       .  S
N169        N170   1.320       .  A
N169        C173   1.356       .  A
N169       Cu177   2.096       .  S
N170        C171   1.335       .  A
N170       Cu176   2.053       .  S
C171        C172   1.380       .  A
C171        H174   1.079       .  S
C172        C173   1.393       .  A
C172       C1352   1.480       .  S
C173        H175   1.081       .  S
Cu176       N179   2.053       .  S
Cu177       N187   2.100       .  S
Cu178       N180   2.080       .  S
Cu178       N186   2.083       .  S
N179        N180   1.318       .  A
N179        C183   1.339       .  A
N180        C181   1.351       .  A
C181        C182   1.389       .  A
C181        H184   1.082       .  S
C182        C183   1.383       .  A
C182       C1323   1.475       .  S
C183        H185   1.082       .  S
N186        N187   1.327       .  A
N186        C190   1.343       .  A
N187        C188   1.351       .  A
C188        C189   1.385       .  A
C188        H191   1.082       .  S
C189        C190   1.380       .  A
C189       C1291   1.474       .  S
C190        H192   1.082       .  S
N193        N194   1.322       .  A
N193        C197   1.353       .  A
N193       Cu201   2.097       .  S
N194        C195   1.339       .  A
N194       Cu200   2.063       .  S
C195        C196   1.380       .  A
C195        H198   1.082       .  S
C196        C197   1.389       .  A
C196       C1256   1.476   1_556  S
C197        H199   1.082       .  S
Cu200       N203   2.062       .  S
Cu201       N211   2.098       .  S
Cu202       N204   2.071       .  S
Cu202       N210   2.073       .  S
N203        N204   1.319       .  A
N203        C207   1.342       .  A
N204        C205   1.347       .  A
C205        C206   1.385       .  A
C205        H208   1.082       .  S
C206        C207   1.383       .  A
C206       C1275   1.471       .  S
C207        H209   1.080       .  S
N210        N211   1.325       .  A
N210        C214   1.342       .  A
N211        C212   1.351       .  A
C212        C213   1.386       .  A
C212        H215   1.081       .  S
C213        C214   1.380       .  A
C213       C1240   1.474       .  S
C214        H216   1.082       .  S
N217        N218   1.322       .  A
N217        C221   1.353       .  A
N217       Cu225   2.092       .  S
N218        C219   1.339       .  A
N218       Cu224   2.061       .  S
C219        C220   1.378       .  A
C219        H222   1.083   1_556  S
C220        C221   1.389       .  A
C220       C1227   1.473   1_556  S
C221        H223   1.082       .  S
Cu224       N227   2.060       .  S
Cu225       N235   2.094       .  S
Cu226       N228   2.071       .  S
Cu226       N234   2.073       .  S
N227        N228   1.319       .  A
N227        C231   1.342       .  A
N228        C229   1.348       .  A
C229        C230   1.386       .  A
C229        H232   1.082       .  S
C230        C231   1.380       .  A
C230       C1272   1.469       .  S
C231        H233   1.079       .  S
N234        N235   1.326       .  A
N234        C238   1.342       .  A
N235        C236   1.350       .  A
C236        C237   1.383       .  A
C236        H239   1.081       .  S
C237        C238   1.378       .  A
C237       C1211   1.466       .  S
C238        H240   1.081       .  S
N241        N242   1.322       .  A
N241        C245   1.352       .  A
N241       Cu249   2.089       .  S
N242        C243   1.342       .  A
N242       Cu248   2.068       .  S
C243        C244   1.379       .  A
C243        H246   1.081       .  S
C244        C245   1.388       .  A
C244       C1259   1.472       .  S
C245        H247   1.081       .  S
Cu248       N251   2.069       .  S
Cu249       N259   2.091       .  S
Cu250       N252   2.080       .  S
Cu250       N258   2.082       .  S
N251        N252   1.320       .  A
N251        C255   1.341       .  A
N252        C253   1.351       .  A
C253        C254   1.387       .  A
C253        H256   1.082       .  S
C254        C255   1.384       .  A
C254       C1195   1.477       .  S
C255        H257   1.081       .  S
N258        N259   1.326       .  A
N258        C262   1.344       .  A
N259        C260   1.349       .  A
C260        C261   1.383       .  A
C260        H263   1.082       .  S
C261        C262   1.382       .  A
C261       C1307   1.473       .  S
C262        H264   1.082       .  S
N265        N266   1.321       .  A
N265        C269   1.353       .  A
N265       Cu273   2.096       .  S
N266        C267   1.339       .  A
N266       Cu272   2.060       .  S
C267        C268   1.380       .  A
C267        H270   1.082       .  S
C268        C269   1.390       .  A
C268       C1224   1.477       .  S
C269        H271   1.082       .  S
Cu272       N275   2.060       .  S
Cu273       N283   2.099       .  S
Cu274       N276   2.079       .  S
Cu274       N282   2.081       .  S
N275        N276   1.320       .  A
N275        C279   1.340       .  A
N276        C277   1.351       .  A
C277        C278   1.388       .  A
C277        H280   1.082       .  S
C278        C279   1.380       .  A
C278       C1192   1.472       .  S
C279        H281   1.082       .  S
N282        N283   1.326       .  A
N282        C286   1.343       .  A
N283        C284   1.350       .  A
C284        C285   1.385       .  A
C284        H287   1.082       .  S
C285        C286   1.381       .  A
C285       C1496   1.475       .  S
C286        H288   1.082       .  S
N289        N290   1.321       .  A
N289        C293   1.355       .  A
N289       Cu297   2.098       .  S
N290        C291   1.339       .  A
N290       Cu296   2.060       .  S
C291        C292   1.378       .  A
C291        H294   1.081       .  S
C292        C293   1.391       .  A
C292       C1160   1.474       .  S
C293        H295   1.081       .  S
Cu296       N299   2.060       .  S
Cu297       N307   2.101       .  S
Cu298       N300   2.082       .  S
Cu298       N306   2.085       .  S
N299        N300   1.320       .  A
N299        C303   1.341       .  A
N300        C301   1.351       .  A
C301        C302   1.388       .  A
C301        H304   1.082       .  S
C302        C303   1.380       .  A
C302       C1176   1.472       .  S
C303        H305   1.082       .  S
N306        N307   1.327       .  A
N306        C310   1.345       .  A
N307        C308   1.350       .  A
C308        C309   1.385       .  A
C308        H311   1.082       .  S
C309        C310   1.382       .  A
C309       C1371   1.476       .  S
C310        H312   1.082       .  S
N313        N314   1.320       .  A
N313        C317   1.354       .  A
N313       Cu321   2.095       .  S
N314        C315   1.337       .  A
N314       Cu320   2.048       .  S
C315        C316   1.378       .  A
C315        H318   1.082       .  S
C316        C317   1.391       .  A
C316       C1144   1.474       .  S
C317        H319   1.082       .  S
Cu320       N323   2.048       .  S
Cu321       N331   2.099       .  S
Cu322       N324   2.085       .  S
Cu322       N330   2.088       .  S
N323        N324   1.318       .  A
N323        C327   1.337       .  A
N324        C325   1.352       .  A
C325        C326   1.391       .  A
C325        H328   1.082       .  S
C326        C327   1.381       .  A
C326       C1179   1.476       .  S
C327        H329   1.082       .  S
N330        N331   1.328       .  A
N330        C334   1.344       .  A
N331        C332   1.350       .  A
C332        C333   1.385       .  A
C332        H335   1.082       .  S
C333        C334   1.379       .  A
C333       C1419   1.473       .  S
C334        H336   1.081       .  S
N337        N338   1.321       .  A
N337        C341   1.355       .  A
N337       Cu345   2.100       .  S
N338        C339   1.338       .  A
N338       Cu344   2.056       .  S
C339        C340   1.381       .  A
C339        H342   1.081       .  S
C340        C341   1.392       .  A
C340       C1163   1.481       .  S
C341        H343   1.081       .  S
Cu344       N347   2.056       .  S
Cu345       N355   2.102       .  S
Cu346       N348   2.079       .  S
Cu346       N354   2.083       .  S
N347        N348   1.319       .  A
N347        C351   1.340       .  A
N348        C349   1.350       .  A
C349        C350   1.387       .  A
C349        H352   1.082       .  S
C350        C351   1.382       .  A
C350       C1131   1.473       .  S
C351        H353   1.080       .  S
N354        N355   1.327       .  A
N354        C358   1.344       .  A
N355        C356   1.350       .  A
C356        C357   1.385       .  A
C356        H359   1.081       .  S
C357        C358   1.381       .  A
C357       C1115   1.475       .  S
C358        H360   1.082       .  S
N361        N362   1.321       .  A
N361        C365   1.352       .  A
N361       Cu369   2.089       .  S
N362        C363   1.339       .  A
N362       Cu368   2.051       .  S
C363        C364   1.377       .  A
C363        H366   1.081       .  S
C364        C365   1.388       .  A
C364       C1147   1.468       .  S
C365        H367   1.081       .  S
Cu368       N371   2.050       .  S
Cu369       N379   2.091       .  S
Cu370       N372   2.083       .  S
Cu370       N378   2.086       .  S
N371        N372   1.320       .  A
N371        C375   1.339       .  A
N372        C373   1.351       .  A
C373        C374   1.389       .  A
C373        H376   1.082       .  S
C374        C375   1.377       .  A
C374       C1128   1.469       .  S
C375        H377   1.079       .  S
N378        N379   1.327       .  A
N378        C382   1.344       .  A
N379        C380   1.349       .  A
C380        C381   1.383       .  A
C380        H383   1.081       .  S
C381        C382   1.382       .  A
C381       C1096   1.473       .  S
C382        H384   1.082       .  S
N385        N386   1.322       .  A
N385        C389   1.351       .  A
N385       Cu393   2.090       .  S
N386        C387   1.340       .  A
N386       Cu392   2.063       .  S
C387        C388   1.381       .  A
C387        H390   1.083       .  S
C388        C389   1.388       .  A
C388       C1064   1.476       .  S
C389        H391   1.082       .  S
Cu392       N395   2.063       .  S
Cu393       N403   2.092       .  S
Cu394       N396   2.082       .  S
Cu394       N402   2.084       .  S
N395        N396   1.320       .  A
N395        C399   1.341       .  A
N396        C397   1.350       .  A
C397        C398   1.388       .  A
C397        H400   1.083       .  S
C398        C399   1.383       .  A
C398       C1080   1.477       .  S
C399        H401   1.082       .  S
N402        N403   1.325       .  A
N402        C406   1.343       .  A
N403        C404   1.351       .  A
C404        C405   1.386       .  A
C404        H407   1.082       .  S
C405        C406   1.380       .  A
C405       C1112   1.473       .  S
C406        H408   1.082       .  S
N409        N410   1.321       .  A
N409        C413   1.353       .  A
N409       Cu417   2.090       .  S
N410        C411   1.339       .  A
N410       Cu416   2.060       .  S
C411        C412   1.382       .  A
C411        H414   1.082       .  S
C412        C413   1.390       .  A
C412       C1048   1.478       .  S
C413        H415   1.081       .  S
Cu416       N419   2.061       .  S
Cu417       N427   2.093       .  S
Cu418       N420   2.088       .  S
Cu418       N426   2.091       .  S
N419        N420   1.321       .  A
N419        C423   1.341       .  A
N420        C421   1.352       .  A
C421        C422   1.389       .  A
C421        H424   1.082       .  S
C422        C423   1.379       .  A
C422       C1083   1.474       .  S
C423        H425   1.082       .  S
N426        N427   1.327       .  A
N426        C430   1.346       .  A
N427        C428   1.349       .  A
C428        C429   1.383       .  A
C428        H431   1.081       .  S
C429        C430   1.382       .  A
C429       C1035   1.473       .  S
C430        H432   1.082       .  S
N433        N434   1.323       .  A
N433        C437   1.356       .  A
N433       Cu441   2.111       .  S
N434        C435   1.338       .  A
N434       Cu440   2.055       .  S
C435        C436   1.376       .  A
C435        H438   1.082       .  S
C436        C437   1.393       .  A
C436       C1051   1.476       .  S
C437        H439   1.081       .  S
Cu440       N443   2.056       .  S
Cu441       N451   2.112       .  S
Cu442       N444   2.068       .  S
Cu442       N450   2.071       .  S
N443        N444   1.318       .  A
N443        C447   1.341       .  A
N444        C445   1.348       .  A
C445        C446   1.387       .  A
C445        H448   1.082       .  S
C446        C447   1.381       .  A
C446       C1016   1.469       .  S
C447        H449   1.082       .  S
N450        N451   1.326       .  A
N450        C454   1.339       .  A
N451        C452   1.355       .  A
C452        C453   1.390       .  A
C452        H455   1.081       .  S
C453        C454   1.378       .  A
C453       C1000   1.478       .  S
C454        H456   1.082       .  S
N457        N458   1.321       .  A
N457        C461   1.355       .  A
N457       Cu465   2.098       .  S
N458        C459   1.336       .  A
N458       Cu464   2.046       .  S
C459        C460   1.374       .  A
C459        H462   1.081       .  S
C460        C461   1.392       .  A
C460       C1067   1.471       .  S
C461        H463   1.081       .  S
Cu464       N467   2.046       .  S
Cu465       N475   2.101       .  S
Cu466       N468   2.079       .  S
Cu466       N474   2.083       .  S
N467        N468   1.318       .  A
N467        C471   1.338       .  A
N468        C469   1.350       .  A
C469        C470   1.389       .  A
C469        H472   1.082       .  S
C470        C471   1.381       .  A
C470       C1019   1.472       .  S
C471        H473   1.082       .  S
N474        N475   1.328       .  A
N474        C478   1.344       .  A
N475        C476   1.350       .  A
C476        C477   1.385       .  A
C476        H479   1.081       .  S
C477        C478   1.378       .  A
C477       C1243   1.471       .  S
C478        H480   1.082       .  S
N481        N482   1.321       .  A
N481        C485   1.353       .  A
N481       Cu489   2.088       .  S
N482        C483   1.337       .  A
N482       Cu488   2.055       .  S
C483        C484   1.378       .  A
C483        H486   1.083       .  S
C484        C485   1.388       .  A
C484        C968   1.471       .  S
C485        H487   1.082       .  S
Cu488       N491   2.055       .  S
Cu489       N499   2.090       .  S
Cu490       N492   2.083       .  S
Cu490       N498   2.085       .  S
N491        N492   1.320       .  A
N491        C495   1.341       .  A
N492        C493   1.350       .  A
C493        C494   1.388       .  A
C493        H496   1.082       .  S
C494        C495   1.379       .  A
C494        C987   1.471       .  S
C495        H497   1.082       .  S
N498        N499   1.326       .  A
N498        C502   1.345       .  A
N499        C500   1.347       .  A
C500        C501   1.382       .  A
C500        H503   1.081       .  S
C501        C502   1.382       .  A
C501       C1339   1.473       .  S
C502        H504   1.082       .  S
N505        N506   1.321       .  A
N505        C509   1.354       .  A
N505       Cu513   2.093       .  S
N506        C507   1.337       .  A
N506       Cu512   2.053       .  S
C507        C508   1.377       .  A
C507        H510   1.083       .  S
C508        C509   1.391       .  A
C508        C952   1.472       .  S
C509        H511   1.082       .  S
Cu512       N515   2.055       .  S
Cu513       N523   2.096       .  S
Cu514       N516   2.083       .  S
Cu514       N522   2.085       .  S
N515        N516   1.320       .  A
N515        C519   1.341       .  A
N516        C517   1.349       .  A
C517        C518   1.387       .  A
C517        H520   1.081       .  S
C518        C519   1.381       .  A
C518        C984   1.473       .  S
C519        H521   1.081       .  S
N522        N523   1.326       .  A
N522        C526   1.346       .  A
N523        C524   1.348       .  A
C524        C525   1.385       .  A
C524        H527   1.082       .  S
C525        C526   1.381       .  A
C525       C1435   1.474       .  S
C526        H528   1.081       .  S
N529        N530   1.323       .  A
N529        C533   1.351       .  A
N529       Cu537   2.088       .  S
N530        C531   1.340       .  A
N530       Cu536   2.067       .  S
C531        C532   1.379       .  A
C531        H534   1.083       .  S
C532        C533   1.387       .  A
C532        C971   1.471       .  S
C533        H535   1.082       .  S
Cu536       N539   2.068       .  S
Cu537       N547   2.089       .  S
Cu538       N540   2.073       .  S
Cu538       N546   2.075       .  S
N539        N540   1.321       .  A
N539        C543   1.344       .  A
N540        C541   1.347       .  A
C541        C542   1.385       .  A
C541        H544   1.082       .  S
C542        C543   1.382       .  A
C542        C939   1.472       .  S
C543        H545   1.081       .  S
N546        N547   1.324       .  A
N546        C550   1.345       .  A
N547        C548   1.348       .  A
C548        C549   1.386       .  A
C548        H551   1.082       .  S
C549        C550   1.381       .  A
C549       C1032   1.474       .  S
C550        H552   1.081       .  S
N553        N554   1.320       .  A
N553        C557   1.354       .  A
N553       Cu561   2.093       .  S
N554        C555   1.336       .  A
N554       Cu560   2.049       .  S
C555        C556   1.379       .  A
C555        H558   1.081       .  S
C556        C557   1.391       .  A
C556        C955   1.476       .  S
C557        H559   1.082       .  S
Cu560       N563   2.049       .  S
Cu561       N571   2.096       .  S
Cu562       N564   2.082       .  S
Cu562       N570   2.086       .  S
N563        N564   1.318       .  A
N563        C567   1.339       .  A
N564        C565   1.351       .  A
C565        C566   1.390       .  A
C565        H568   1.082       .  S
C566        C567   1.381       .  A
C566        C936   1.474       .  S
C567        H569   1.081       .  S
N570        N571   1.328       .  A
N570        C574   1.343       .  A
N571        C572   1.350       .  A
C572        C573   1.383       .  A
C572        H575   1.082       .  S
C573        C574   1.380       .  A
C573        C920   1.472       .  S
C574        H576   1.082       .  S
N577        N578   1.322       .  A
N577        C581   1.355       .  A
N577       Cu585   2.101       .  S
N578        C579   1.337       .  A
N578       Cu584   2.053       .  S
C579        C580   1.376       .  A
C579        H582   1.082       .  S
C580        C581   1.392       .  A
C580        C888   1.473       .  S
C581        H583   1.082       .  S
Cu584       N587   2.052       .  S
Cu585       N595   2.104       .  S
Cu586       N588   2.084       .  S
Cu586       N594   2.087       .  S
N587        N588   1.318       .  A
N587        C591   1.339       .  A
N588        C589   1.352       .  A
C589        C590   1.390       .  A
C589        H592   1.082       .  S
C590        C591   1.379       .  A
C590        C907   1.472       .  S
C591        H593   1.081       .  S
N594        N595   1.327       .  A
N594        C598   1.342       .  A
N595        C596   1.353       .  A
C596        C597   1.387       .  A
C596        H599   1.082       .  S
C597        C598   1.379       .  A
C597       C1003   1.475       .  S
C598        H600   1.082       .  S
N601        N602   1.322       .  A
N601        C605   1.353       .  A
N601       Cu609   2.095       .  S
N602        C603   1.339       .  A
N602       Cu608   2.062       .  S
C603        C604   1.380       .  A
C603        H606   1.082       .  S
C604        C605   1.389       .  A
C604        C872   1.476   1_556  S
C605        H607   1.082       .  S
Cu608       N611   2.062       .  S
Cu609       N619   2.097       .  S
Cu610       N612   2.079       .  S
Cu610       N618   2.082       .  S
N611        N612   1.319       .  A
N611        C615   1.342       .  A
N612        C613   1.350       .  A
C613        C614   1.387       .  A
C613        H616   1.082       .  S
C614        C615   1.384       .  A
C614        C904   1.476       .  S
C615        H617   1.081       .  S
N618        N619   1.326       .  A
N618        C622   1.343       .  A
N619        C620   1.351       .  A
C620        C621   1.386       .  A
C620        H623   1.082       .  S
C621        C622   1.381       .  A
C621        C856   1.475       .  S
C622        H624   1.082       .  S
N625        N626   1.321       .  A
N625        C629   1.354       .  A
N625       Cu633   2.094       .  S
N626        C627   1.337       .  A
N626       Cu632   2.056       .  S
C627        C628   1.380       .  A
C627        H630   1.082       .  S
C628        C629   1.391       .  A
C628        C891   1.479       .  S
C629        H631   1.082       .  S
Cu632       N635   2.058       .  S
Cu633       N643   2.098       .  S
Cu634       N636   2.079       .  S
Cu634       N642   2.081       .  S
N635        N636   1.320       .  A
N635        C639   1.341       .  A
N636        C637   1.350       .  A
C637        C638   1.388       .  A
C637        H640   1.082       .  S
C638        C639   1.380       .  A
C638        C840   1.472       .  S
C639        H641   1.081       .  S
N642        N643   1.326       .  A
N642        C646   1.343       .  A
N643        C644   1.350       .  A
C644        C645   1.386       .  A
C644        H647   1.082       .  S
C645        C646   1.379       .  A
C645       C1288   1.474       .  S
C646        H648   1.083       .  S
N649        N650   1.321       .  A
N649        C653   1.351       .  A
N649       Cu657   2.087       .  S
N650        C651   1.340       .  A
N650       Cu656   2.059       .  S
C651        C652   1.378       .  A
C651        H654   1.082       .  S
C652        C653   1.389       .  A
C652        C875   1.471       .  S
C653        H655   1.082       .  S
Cu656       N659   2.060       .  S
Cu657       N667   2.090       .  S
Cu658       N660   2.091       .  S
Cu658       N666   2.094       .  S
N659        N660   1.320       .  A
N659        C663   1.340       .  A
N660        C661   1.352       .  A
C661        C662   1.390       .  A
C661        H664   1.082       .  S
C662        C663   1.382       .  A
C662        C843   1.478       .  S
C663        H665   1.081       .  S
N666        N667   1.326       .  A
N666        C670   1.345       .  A
N667        C668   1.350       .  A
C668        C669   1.384       .  A
C668        H671   1.081       .  S
C669        C670   1.384       .  A
C669       C1467   1.477       .  S
C670        H672   1.081       .  S
N673        N674   1.322       .  A
N673        C677   1.353       .  A
N673       Cu681   2.092       .  S
N674        C675   1.337       .  A
N674       Cu680   2.057       .  S
C675        C676   1.379       .  A
C675        H678   1.081       .  S
C676        C677   1.389       .  A
C676        C811   1.474       .  S
C677        H679   1.082       .  S
Cu680       N683   2.057       .  S
Cu681       N691   2.095       .  S
Cu682       N684   2.072       .  S
Cu682       N690   2.075       .  S
N683        N684   1.319       .  A
N683        C687   1.340       .  A
N684        C685   1.349       .  A
C685        C686   1.387       .  A
C685        H688   1.082       .  S
C686        C687   1.380       .  A
C686        C824   1.469       .  S
C687        H689   1.082       .  S
N690        N691   1.326       .  A
N690        C694   1.342       .  A
N691        C692   1.351       .  A
C692        C693   1.385       .  A
C692        H695   1.081       .  S
C693        C694   1.377       .  A
C693       C1099   1.469       .  S
C694        H696   1.081       .  S
N697        N698   1.321       .  A
N697        C701   1.353       .  A
N697       Cu705   2.093       .  S
N698        C699   1.338       .  A
N698       Cu704   2.055       .  S
C699        C700   1.378       .  A
C699        H702   1.082       .  S
C700        C701   1.389       .  A
C700        C792   1.473       .  S
C701        H703   1.082       .  S
Cu704       N707   2.054       .  S
Cu705       N715   2.096       .  S
Cu706       N708   2.076       .  S
Cu706       N714   2.080       .  S
N707        N708   1.319       .  A
N707        C711   1.340       .  A
N708        C709   1.350       .  A
C709        C710   1.386       .  A
C709        H712   1.082       .  S
C710        C711   1.381       .  A
C710        C827   1.470       .  S
C711        H713   1.082       .  S
N714        N715   1.327       .  A
N714        C718   1.343       .  A
N715        C716   1.350       .  A
C716        C717   1.385       .  A
C716        H719   1.081       .  S
C717        C718   1.379       .  A
C717        C923   1.471       .  S
C718        H720   1.082       .  S
N721        N722   1.321       .  A
N721        C725   1.352       .  A
N721       Cu729   2.083       .  S
N722        C723   1.338       .  A
N722       Cu728   2.054       .  S
C723        C724   1.378       .  A
C723        H726   1.081       .  S
C724        C725   1.388       .  A
C724        C808   1.469       .  S
C725        H727   1.081       .  S
Cu728       N731   2.055       .  S
Cu729       N739   2.086       .  S
Cu730       N732   2.078       .  S
Cu730       N738   2.081       .  S
N731        N732   1.320       .  A
N731        C735   1.339       .  A
N732        C733   1.350       .  A
C733        C734   1.387       .  A
C733        H736   1.083       .  S
C734        C735   1.378       .  A
C734        C776   1.468       .  S
C735        H737   1.082       .  S
N738        N739   1.326       .  A
N738        C742   1.344       .  A
N739        C740   1.347       .  A
C740        C741   1.383       .  A
C740        H743   1.081       .  S
C741        C742   1.380       .  A
C741       C1208   1.470       .  S
C742        H744   1.082       .  S
N745        N746   1.321       .  A
N745        C749   1.351       .  A
N745       Cu753   2.091       .  S
N746        C747   1.341       .  A
N746       Cu752   2.058       .  S
C747        C748   1.378       .  A
C747        H750   1.082       .  S
C748        C749   1.388       .  A
C748        C795   1.470       .  S
C749        H751   1.081       .  S
Cu752       N755   2.058       .  S
Cu753       N763   2.093       .  S
Cu754       N756   2.083       .  S
Cu754       N762   2.085       .  S
N755        N756   1.320       .  A
N755        C759   1.340       .  A
N756        C757   1.350       .  A
C757        C758   1.387       .  A
C757        H760   1.082       .  S
C758        C759   1.381       .  A
C758        C779   1.473       .  S
C759        H761   1.083       .  S
N762        N763   1.326       .  A
N762        C766   1.345       .  A
N763        C764   1.349       .  A
C764        C765   1.385       .  A
C764        H767   1.081       .  S
C765        C766   1.381       .  A
C765        C859   1.475       .  S
C766        H768   1.082       .  S
C769        C774   1.381       .  A
C769        C770   1.397       .  A
C769        O775   1.313       .  A
C770        C771   1.396       .  A
C770        H781   1.085       .  S
C771        C780   1.354       .  A
C771        C772   1.380       .  A
C772        C773   1.408       .  A
C772        O778   1.323       .  A
C773        C774   1.407       .  A
C773        H782   1.084       .  S
C774        C777   1.368       .  A
O775        C776   1.328       .  A
C776        C777   1.393       .  A
C777        H783   1.083       .  S
O778        C779   1.333       .  A
C779        C780   1.389       .  A
C780        H784   1.083       .  S
C785        C790   1.380       .  A
C785        C786   1.409       .  A
C785        O791   1.325       .  A
C786        C787   1.409       .  A
C786        H797   1.082       .  S
C787        C796   1.369       .  A
C787        C788   1.381       .  A
C788        C789   1.398       .  A
C788        O794   1.315       .  A
C789        C790   1.397       .  A
C789        H798   1.083       .  S
C790        C793   1.354       .  A
O791        C792   1.333       .  A
C792        C793   1.389       .  A
C793        H799   1.083       .  S
O794        C795   1.328       .  A
C795        C796   1.393       .  A
C796        H800   1.082       .  S
C801        C806   1.381       .  A
C801        C802   1.395       .  A
C801        O807   1.312       .  A
C802        C803   1.395       .  A
C802        H813   1.083       .  S
C803        C812   1.351       .  A
C803        C804   1.380       .  A
C804        C805   1.411       .  A
C804        O810   1.326       .  A
C805        C806   1.410       .  A
C805        H814   1.082       .  S
C806        C809   1.371       .  A
O807        C808   1.327       .  A
C808        C809   1.395       .  A
C809        H815   1.082       .  S
O810        C811   1.335       .  A
C811        C812   1.388       .  A
C812        H816   1.082       .  S
C817        C822   1.381       .  A
C817        C818   1.397       .  A
C817        O823   1.313       .  A
C818        C819   1.396       .  A
C818        H829   1.084       .  S
C819        C828   1.354       .  A
C819        C820   1.380       .  A
C820        C821   1.408       .  A
C820        O826   1.323       .  A
C821        C822   1.407       .  A
C821        H830   1.083       .  S
C822        C825   1.368       .  A
O823        C824   1.328       .  A
C824        C825   1.394       .  A
C825        H831   1.082       .  S
O826        C827   1.333       .  A
C827        C828   1.388       .  A
C828        H832   1.083       .  S
C833        C838   1.380       .  A
C833        C834   1.399       .  A
C833        O839   1.315       .  A
C834        C835   1.399   1_655  A
C834        H845   1.084       .  S
C835        C844   1.356       .  A
C835        C836   1.380       .  A
C836        C837   1.408   1_455  A
C836        O842   1.324       .  A
C837        C838   1.408       .  A
C837        H846   1.083       .  S
C838        C841   1.368       .  A
O839        C840   1.329       .  A
C840        C841   1.394       .  A
C841        H847   1.082       .  S
O842        C843   1.334       .  A
C843        C844   1.391       .  A
C844        H848   1.083       .  S
C849        C854   1.380       .  A
C849        C850   1.408       .  A
C849        O855   1.324       .  A
C850        C851   1.408       .  A
C850        H861   1.082       .  S
C851        C860   1.367       .  A
C851        C852   1.380       .  A
C852        C853   1.401       .  A
C852        O858   1.318       .  A
C853        C854   1.401       .  A
C853        H862   1.082       .  S
C854        C857   1.358       .  A
O855        C856   1.333       .  A
C856        C857   1.390       .  A
C857        H863   1.082       .  S
O858        C859   1.330       .  A
C859        C860   1.394       .  A
C860        H864   1.082       .  S
C865        C870   1.380       .  A
C865        C866   1.409       .  A
C865        O871   1.325       .  A
C866        C867   1.409       .  A
C866        H877   1.082       .  S
C867        C876   1.369       .  A
C867        C868   1.381       .  A
C868        C869   1.398       .  A
C868        O874   1.314       .  A
C869        C870   1.397       .  A
C869        H878   1.082       .  S
C870        C873   1.354       .  A
O871        C872   1.334       .  A
C872        C873   1.390       .  A
C873        H879   1.082       .  S
O874        C875   1.328       .  A
C875        C876   1.394       .  A
C876        H880   1.082       .  S
C881        C886   1.380       .  A
C881        C882   1.397       .  A
C881        O887   1.312       .  A
C882        C883   1.396       .  A
C882        H893   1.083       .  S
C883        C892   1.352       .  A
C883        C884   1.379       .  A
C884        C885   1.412       .  A
C884        O890   1.327       .  A
C885        C886   1.411       .  A
C885        H894   1.082       .  S
C886        C889   1.373   1_554  A
O887        C888   1.328   1_554  A
C888        C889   1.395       .  A
C889        H895   1.082       .  S
O890        C891   1.335       .  A
C891        C892   1.390       .  A
C892        H896   1.082       .  S
C897        C902   1.380       .  A
C897        C898   1.410   1_455  A
C897        O903   1.324       .  A
C898        C899   1.409       .  A
C898        H909   1.083       .  S
C899        C908   1.370       .  A
C899        C900   1.380       .  A
C900        C901   1.398       .  A
C900        O906   1.314       .  A
C901        C902   1.397   1_655  A
C901        H910   1.084       .  S
C902        C905   1.356       .  A
O903        C904   1.334       .  A
C904        C905   1.389       .  A
C905        H911   1.083       .  S
O906        C907   1.328       .  A
C907        C908   1.394       .  A
C908        H912   1.083       .  S
C913        C918   1.380       .  A
C913        C914   1.407       .  A
C913        O919   1.323       .  A
C914        C915   1.407       .  A
C914        H925   1.084       .  S
C915        C924   1.366       .  A
C915        C916   1.381       .  A
C916        C917   1.400       .  A
C916        O922   1.316       .  A
C917        C918   1.399       .  A
C917        H926   1.084       .  S
C918        C921   1.357       .  A
O919        C920   1.333       .  A
C920        C921   1.389       .  A
C921        H927   1.083       .  S
O922        C923   1.329       .  A
C923        C924   1.393       .  A
C924        H928   1.083       .  S
C929        C934   1.380       .  A
C929        C930   1.406       .  A
C929        O935   1.323       .  A
C930        C931   1.406       .  A
C930        H941   1.081       .  S
C931        C940   1.365       .  A
C931        C932   1.381       .  A
C932        C933   1.400       .  A
C932        O938   1.317       .  A
C933        C934   1.400       .  A
C933        H942   1.082       .  S
C934        C937   1.356       .  A
O935        C936   1.333       .  A
C936        C937   1.391       .  A
C937        H943   1.082       .  S
O938        C939   1.329       .  A
C939        C940   1.393       .  A
C940        H944   1.081       .  S
C945        C950   1.381       .  A
C945        C946   1.395       .  A
C945        O951   1.312       .  A
C946        C947   1.395       .  A
C946        H957   1.082       .  S
C947        C956   1.351       .  A
C947        C948   1.379       .  A
C948        C949   1.412       .  A
C948        O954   1.327       .  A
C949        C950   1.411       .  A
C949        H958   1.081       .  S
C950        C953   1.372       .  A
O951        C952   1.327       .  A
C952        C953   1.396       .  A
C953        H959   1.082       .  S
O954        C955   1.335       .  A
C955        C956   1.389       .  A
C956        H960   1.082       .  S
C961        C966   1.380       .  A
C961        C962   1.410       .  A
C961        O967   1.325       .  A
C962        C963   1.410       .  A
C962        H973   1.081       .  S
C963        C972   1.370       .  A
C963        C964   1.381       .  A
C964        C965   1.397       .  A
C964        O970   1.314       .  A
C965        C966   1.396       .  A
C965        H974   1.082       .  S
C966        C969   1.353       .  A
O967        C968   1.334       .  A
C968        C969   1.387       .  A
C969        H975   1.082       .  S
O970        C971   1.327       .  A
C971        C972   1.395       .  A
C972        H976   1.082       .  S
C977        C982   1.380       .  A
C977        C978   1.406       .  A
C977        O983   1.322       .  A
C978        C979   1.406       .  A
C978        H989   1.082       .  S
C979        C988   1.366       .  A
C979        C980   1.380       .  A
C980        C981   1.400       .  A
C980        O986   1.315       .  A
C981        C982   1.399       .  A
C981        H990   1.083       .  S
C982        C985   1.357       .  A
O983        C984   1.332       .  A
C984        C985   1.391       .  A
C985        H991   1.082       .  S
O986        C987   1.330       .  A
C987        C988   1.393       .  A
C988        H992   1.082       .  S
C993        C998   1.379       .  A
C993        C994   1.412       .  A
C993        O999   1.328       .  A
C994        C995   1.412       .  A
C994       H1005   1.082       .  S
C995       C1004   1.372       .  A
C995        C996   1.380       .  A
C996        C997   1.397       .  A
C996       O1002   1.314       .  A
C997        C998   1.397       .  A
C997       H1006   1.083       .  S
C998       C1001   1.353       .  A
O999       C1000   1.336       .  A
C1000      C1001   1.389       .  A
C1001      H1007   1.083       .  S
O1002      C1003   1.328       .  A
C1003      C1004   1.396       .  A
C1004      H1008   1.082       .  S
C1009      C1014   1.381       .  A
C1009      C1010   1.397       .  A
C1009      O1015   1.314       .  A
C1010      C1011   1.397       .  A
C1010      H1021   1.085       .  S
C1011      C1020   1.354       .  A
C1011      C1012   1.380       .  A
C1012      C1013   1.407       .  A
C1012      O1018   1.323       .  A
C1013      C1014   1.407       .  A
C1013      H1022   1.083       .  S
C1014      C1017   1.366       .  A
O1015      C1016   1.328       .  A
C1016      C1017   1.393       .  A
C1017      H1023   1.082       .  S
O1018      C1019   1.333       .  A
C1019      C1020   1.390       .  A
C1020      H1024   1.083       .  S
C1025      C1030   1.380       .  A
C1025      C1026   1.403       .  A
C1025      O1031   1.318       .  A
C1026      C1027   1.402       .  A
C1026      H1037   1.080       .  S
C1027      C1036   1.361       .  A
C1027      C1028   1.380       .  A
C1028      C1029   1.406       .  A
C1028      O1034   1.321       .  A
C1029      C1030   1.405       .  A
C1029      H1038   1.081       .  S
C1030      C1033   1.365       .  A
O1031      C1032   1.331       .  A
C1032      C1033   1.392       .  A
C1033      H1039   1.081       .  S
O1034      C1035   1.332       .  A
C1035      C1036   1.390       .  A
C1036      H1040   1.081       .  S
C1041      C1046   1.379       .  A
C1041      C1042   1.412       .  A
C1041      O1047   1.326       .  A
C1042      C1043   1.412       .  A
C1042      H1053   1.080       .  S
C1043      C1052   1.374       .  A
C1043      C1044   1.380       .  A
C1044      C1045   1.398       .  A
C1044      O1050   1.313       .  A
C1045      C1046   1.397       .  A
C1045      H1054   1.081       .  S
C1046      C1049   1.354       .  A
O1047      C1048   1.335       .  A
C1048      C1049   1.389       .  A
C1049      H1055   1.081       .  S
O1050      C1051   1.329       .  A
C1051      C1052   1.396       .  A
C1052      H1056   1.081       .  S
C1057      C1062   1.379       .  A
C1057      C1058   1.410       .  A
C1057      O1063   1.324       .  A
C1058      C1059   1.409       .  A
C1058      H1069   1.082       .  S
C1059      C1068   1.372       .  A
C1059      C1060   1.380       .  A
C1060      C1061   1.397       .  A
C1060      O1066   1.312       .  A
C1061      C1062   1.396       .  A
C1061      H1070   1.083       .  S
C1062      C1065   1.355       .  A
O1063      C1064   1.334       .  A
C1064      C1065   1.389       .  A
C1065      H1071   1.082       .  S
O1066      C1067   1.328       .  A
C1067      C1068   1.394       .  A
C1068      H1072   1.082       .  S
C1073      C1078   1.380       .  A
C1073      C1074   1.409       .  A
C1073      O1079   1.324       .  A
C1074      C1075   1.408       .  A
C1074      H1085   1.085       .  S
C1075      C1084   1.369       .  A
C1075      C1076   1.380       .  A
C1076      C1077   1.399       .  A
C1076      O1082   1.315       .  A
C1077      C1078   1.398       .  A
C1077      H1086   1.087       .  S
C1078      C1081   1.356       .  A
O1079      C1080   1.334       .  A
C1080      C1081   1.390       .  A
C1081      H1087   1.084       .  S
O1082      C1083   1.329       .  A
C1083      C1084   1.394       .  A
C1084      H1088   1.083       .  S
C1089      C1094   1.380       .  A
C1089      C1090   1.409       .  A
C1089      O1095   1.323       .  A
C1090      C1091   1.408       .  A
C1090      H1101   1.081       .  S
C1091      C1100   1.368       .  A
C1091      C1092   1.381       .  A
C1092      C1093   1.400       .  A
C1092      O1098   1.315       .  A
C1093      C1094   1.399       .  A
C1093      H1102   1.080       .  S
C1094      C1097   1.358       .  A
O1095      C1096   1.333       .  A
C1096      C1097   1.389       .  A
C1097      H1103   1.081       .  S
O1098      C1099   1.328       .  A
C1099      C1100   1.393       .  A
C1100      H1104   1.082       .  S
C1105      C1110   1.380       .  A
C1105      C1106   1.400       .  A
C1105      O1111   1.316       .  A
C1106      C1107   1.399       .  A
C1106      H1117   1.083       .  S
C1107      C1116   1.358       .  A
C1107      C1108   1.380       .  A
C1108      C1109   1.409       .  A
C1108      O1114   1.324       .  A
C1109      C1110   1.409       .  A
C1109      H1118   1.083       .  S
C1110      C1113   1.369       .  A
O1111      C1112   1.329       .  A
C1112      C1113   1.394       .  A
C1113      H1119   1.083       .  S
O1114      C1115   1.334       .  A
C1115      C1116   1.389       .  A
C1116      H1120   1.083       .  S
C1121      C1126   1.381       .  A
C1121      C1122   1.398       .  A
C1121      O1127   1.313       .  A
C1122      C1123   1.397       .  A
C1122      H1133   1.085       .  S
C1123      C1132   1.354       .  A
C1123      C1124   1.380       .  A
C1124      C1125   1.408       .  A
C1124      O1130   1.323       .  A
C1125      C1126   1.407       .  A
C1125      H1134   1.083       .  S
C1126      C1129   1.368       .  A
O1127      C1128   1.328       .  A
C1128      C1129   1.393       .  A
C1129      H1135   1.082       .  S
O1130      C1131   1.333       .  A
C1131      C1132   1.389       .  A
C1132      H1136   1.084       .  S
C1137      C1142   1.380   1_565  A
C1137      C1138   1.409       .  A
C1137      O1143   1.325       .  A
C1138      C1139   1.409   1_565  A
C1138      H1149   1.082       .  S
C1139      C1148   1.369       .  A
C1139      C1140   1.381       .  A
C1140      C1141   1.397       .  A
C1140      O1146   1.314       .  A
C1141      C1142   1.397       .  A
C1141      H1150   1.084       .  S
C1142      C1145   1.353   1_545  A
O1143      C1144   1.334       .  A
C1144      C1145   1.389       .  A
C1145      H1151   1.083       .  S
O1146      C1147   1.328       .  A
C1147      C1148   1.393       .  A
C1148      H1152   1.082       .  S
C1153      C1158   1.380       .  A
C1153      C1154   1.397       .  A
C1153      O1159   1.313   1_545  A
C1154      C1155   1.396       .  A
C1154      H1165   1.083       .  S
C1155      C1164   1.353       .  A
C1155      C1156   1.379       .  A
C1156      C1157   1.412       .  A
C1156      O1162   1.327       .  A
C1157      C1158   1.412       .  A
C1157      H1166   1.082       .  S
C1158      C1161   1.373   1_545  A
O1159      C1160   1.328       .  A
C1160      C1161   1.396       .  A
C1161      H1167   1.082       .  S
O1162      C1163   1.336       .  A
C1163      C1164   1.390       .  A
C1164      H1168   1.082       .  S
C1169      C1174   1.381       .  A
C1169      C1170   1.397       .  A
C1169      O1175   1.314       .  A
C1170      C1171   1.396       .  A
C1170      H1181   1.084       .  S
C1171      C1180   1.352       .  A
C1171      C1172   1.379       .  A
C1172      C1173   1.409       .  A
C1172      O1178   1.325       .  A
C1173      C1174   1.409       .  A
C1173      H1182   1.083       .  S
C1174      C1177   1.369       .  A
O1175      C1176   1.328       .  A
C1176      C1177   1.395       .  A
C1177      H1183   1.082       .  S
O1178      C1179   1.334       .  A
C1179      C1180   1.390       .  A
C1180      H1184   1.083       .  S
C1185      C1190   1.380   1_455  A
C1185      C1186   1.397   1_455  A
C1185      O1191   1.313       .  A
C1186      C1187   1.396       .  A
C1186      H1197   1.084       .  S
C1187      C1196   1.354       .  A
C1187      C1188   1.379       .  A
C1188      C1189   1.411       .  A
C1188      O1194   1.325       .  A
C1189      C1190   1.410       .  A
C1189      H1198   1.083       .  S
C1190      C1193   1.371   1_655  A
O1191      C1192   1.327       .  A
C1192      C1193   1.395       .  A
C1193      H1199   1.083       .  S
O1194      C1195   1.335       .  A
C1195      C1196   1.389       .  A
C1196      H1200   1.083       .  S
C1201      C1206   1.381       .  A
C1201      C1202   1.400       .  A
C1201      O1207   1.316       .  A
C1202      C1203   1.399       .  A
C1202      H1213   1.081       .  S
C1203      C1212   1.356       .  A
C1203      C1204   1.381       .  A
C1204      C1205   1.406       .  A
C1204      O1210   1.322       .  A
C1205      C1206   1.406       .  A
C1205      H1214   1.081       .  S
C1206      C1209   1.364       .  A
O1207      C1208   1.329       .  A
C1208      C1209   1.393       .  A
C1209      H1215   1.082       .  S
O1210      C1211   1.331       .  A
C1211      C1212   1.387       .  A
C1212      H1216   1.082       .  S
C1217      C1222   1.380       .  A
C1217      C1218   1.411       .  A
C1217      O1223   1.326   1_545  A
C1218      C1219   1.410       .  A
C1218      H1229   1.081       .  S
C1219      C1228   1.371       .  A
C1219      C1220   1.381       .  A
C1220      C1221   1.398       .  A
C1220      O1226   1.314       .  A
C1221      C1222   1.398       .  A
C1221      H1230   1.081       .  S
C1222      C1225   1.355       .  A
O1223      C1224   1.334       .  A
C1224      C1225   1.390   1_565  A
C1225      H1231   1.082       .  S
O1226      C1227   1.328       .  A
C1227      C1228   1.395       .  A
C1228      H1232   1.082       .  S
C1233      C1238   1.380       .  A
C1233      C1234   1.407       .  A
C1233      O1239   1.323       .  A
C1234      C1235   1.407       .  A
C1234      H1245   1.083       .  S
C1235      C1244   1.367       .  A
C1235      C1236   1.381       .  A
C1236      C1237   1.400       .  A
C1236      O1242   1.317       .  A
C1237      C1238   1.400       .  A
C1237      H1246   1.083       .  S
C1238      C1241   1.357       .  A
O1239      C1240   1.333       .  A
C1240      C1241   1.390       .  A
C1241      H1247   1.083       .  S
O1242      C1243   1.329       .  A
C1243      C1244   1.393       .  A
C1244      H1248   1.082       .  S
C1249      C1254   1.380       .  A
C1249      C1250   1.410       .  A
C1249      O1255   1.326       .  A
C1250      C1251   1.410       .  A
C1250      H1261   1.082       .  S
C1251      C1260   1.370   1_545  A
C1251      C1252   1.381       .  A
C1252      C1253   1.398       .  A
C1252      O1258   1.315       .  A
C1253      C1254   1.398       .  A
C1253      H1262   1.082       .  S
C1254      C1257   1.355       .  A
O1255      C1256   1.334       .  A
C1256      C1257   1.389       .  A
C1257      H1263   1.082       .  S
O1258      C1259   1.328   1_545  A
C1259      C1260   1.394       .  A
C1260      H1264   1.082       .  S
C1265      C1270   1.381       .  A
C1265      C1266   1.400   1_455  A
C1265      O1271   1.315       .  A
C1266      C1267   1.399       .  A
C1266      H1277   1.084       .  S
C1267      C1276   1.357       .  A
C1267      C1268   1.380       .  A
C1268      C1269   1.406       .  A
C1268      O1274   1.320       .  A
C1269      C1270   1.405   1_655  A
C1269      H1278   1.082       .  S
C1270      C1273   1.365       .  A
O1271      C1272   1.329       .  A
C1272      C1273   1.392       .  A
C1273      H1279   1.082       .  S
O1274      C1275   1.332       .  A
C1275      C1276   1.390       .  A
C1276      H1280   1.083       .  S
C1281      C1286   1.380       .  A
C1281      C1282   1.401       .  A
C1281      O1287   1.317       .  A
C1282      C1283   1.400       .  A
C1282      H1293   1.083       .  S
C1283      C1292   1.358       .  A
C1283      C1284   1.380       .  A
C1284      C1285   1.408       .  A
C1284      O1290   1.323       .  A
C1285      C1286   1.407       .  A
C1285      H1294   1.083       .  S
C1286      C1289   1.367       .  A
O1287      C1288   1.330       .  A
C1288      C1289   1.394       .  A
C1289      H1295   1.082       .  S
O1290      C1291   1.333       .  A
C1291      C1292   1.390       .  A
C1292      H1296   1.083       .  S
C1297      C1302   1.380       .  A
C1297      C1298   1.401       .  A
C1297      O1303   1.317       .  A
C1298      C1299   1.400       .  A
C1298      H1309   1.083       .  S
C1299      C1308   1.359       .  A
C1299      C1300   1.380       .  A
C1300      C1301   1.406       .  A
C1300      O1306   1.321       .  A
C1301      C1302   1.406       .  A
C1301      H1310   1.082       .  S
C1302      C1305   1.366       .  A
O1303      C1304   1.330       .  A
C1304      C1305   1.393       .  A
C1305      H1311   1.082       .  S
O1306      C1307   1.332       .  A
C1307      C1308   1.390       .  A
C1308      H1312   1.083       .  S
C1313      C1318   1.381       .  A
C1313      C1314   1.397       .  A
C1313      O1319   1.313       .  A
C1314      C1315   1.396       .  A
C1314      H1325   1.083       .  S
C1315      C1324   1.354       .  A
C1315      C1316   1.379       .  A
C1316      C1317   1.410       .  A
C1316      O1322   1.325       .  A
C1317      C1318   1.409       .  A
C1317      H1326   1.083       .  S
C1318      C1321   1.370       .  A
O1319      C1320   1.327       .  A
C1320      C1321   1.395       .  A
C1321      H1327   1.082       .  S
O1322      C1323   1.335       .  A
C1323      C1324   1.389       .  A
C1324      H1328   1.082       .  S
C1329      C1334   1.381       .  A
C1329      C1330   1.402       .  A
C1329      O1335   1.317       .  A
C1330      C1331   1.400       .  A
C1330      H1341   1.083       .  S
C1331      C1340   1.360       .  A
C1331      C1332   1.380       .  A
C1332      C1333   1.406       .  A
C1332      O1338   1.321       .  A
C1333      C1334   1.405       .  A
C1333      H1342   1.082       .  S
C1334      C1337   1.366       .  A
O1335      C1336   1.330       .  A
C1336      C1337   1.392       .  A
C1337      H1343   1.082       .  S
O1338      C1339   1.332       .  A
C1339      C1340   1.390       .  A
C1340      H1344   1.083       .  S
C1345      C1350   1.378       .  A
C1345      C1346   1.415       .  A
C1345      O1351   1.329       .  A
C1346      C1347   1.415       .  A
C1346      H1357   1.080       .  S
C1347      C1356   1.377       .  A
C1347      C1348   1.380       .  A
C1348      C1349   1.392       .  A
C1348      O1354   1.308       .  A
C1349      C1350   1.391       .  A
C1349      H1358   1.081       .  S
C1350      C1353   1.347       .  A
O1351      C1352   1.338       .  A
C1352      C1353   1.388       .  A
C1353      H1359   1.081       .  S
O1354      C1355   1.325       .  A
C1355      C1356   1.398       .  A
C1356      H1360   1.081       .  S
C1361      C1366   1.380       .  A
C1361      C1362   1.402       .  A
C1361      O1367   1.317       .  A
C1362      C1363   1.401       .  A
C1362      H1373   1.084       .  S
C1363      C1372   1.360       .  A
C1363      C1364   1.380       .  A
C1364      C1365   1.408       .  A
C1364      O1370   1.322       .  A
C1365      C1366   1.407       .  A
C1365      H1374   1.082       .  S
C1366      C1369   1.368       .  A
O1367      C1368   1.330       .  A
C1368      C1369   1.393       .  A
C1369      H1375   1.082       .  S
O1370      C1371   1.333       .  A
C1371      C1372   1.391       .  A
C1372      H1376   1.083       .  S
C1377      C1382   1.379       .  A
C1377      C1378   1.414       .  A
C1377      O1383   1.329       .  A
C1378      C1379   1.414       .  A
C1378      H1389   1.082       .  S
C1379      C1388   1.374       .  A
C1379      C1380   1.381       .  A
C1380      C1381   1.395       .  A
C1380      O1386   1.313       .  A
C1381      C1382   1.395       .  A
C1381      H1390   1.083       .  S
C1382      C1385   1.350       .  A
O1383      C1384   1.337       .  A
C1384      C1385   1.389       .  A
C1385      H1391   1.082       .  S
O1386      C1387   1.327       .  A
C1387      C1388   1.397       .  A
C1388      H1392   1.082       .  S
C1393      C1398   1.380       .  A
C1393      C1394   1.409       .  A
C1393      O1399   1.323       .  A
C1394      C1395   1.408       .  A
C1394      H1405   1.082       .  S
C1395      C1404   1.370       .  A
C1395      C1396   1.380       .  A
C1396      C1397   1.399       .  A
C1396      O1402   1.313       .  A
C1397      C1398   1.397       .  A
C1397      H1406   1.083       .  S
C1398      C1401   1.357       .  A
O1399      C1400   1.334       .  A
C1400      C1401   1.389       .  A
C1401      H1407   1.083       .  S
O1402      C1403   1.329       .  A
C1403      C1404   1.394       .  A
C1404      H1408   1.082       .  S
C1409      C1414   1.380       .  A
C1409      C1410   1.408       .  A
C1409      O1415   1.323       .  A
C1410      C1411   1.407       .  A
C1410      H1421   1.081       .  S
C1411      C1420   1.368       .  A
C1411      C1412   1.380       .  A
C1412      C1413   1.401       .  A
C1412      O1418   1.317       .  A
C1413      C1414   1.401       .  A
C1413      H1422   1.083       .  S
C1414      C1417   1.359       .  A
O1415      C1416   1.333       .  A
C1416      C1417   1.391       .  A
C1417      H1423   1.083       .  S
O1418      C1419   1.329       .  A
C1419      C1420   1.394       .  A
C1420      H1424   1.082       .  S
C1425      C1430   1.380       .  A
C1425      C1426   1.406       .  A
C1425      O1431   1.322       .  A
C1426      C1427   1.406       .  A
C1426      H1437   1.080       .  S
C1427      C1436   1.365       .  A
C1427      C1428   1.380       .  A
C1428      C1429   1.403       .  A
C1428      O1434   1.319       .  A
C1429      C1430   1.403       .  A
C1429      H1438   1.080       .  S
C1430      C1433   1.360       .  A
O1431      C1432   1.332       .  A
C1432      C1433   1.392       .  A
C1433      H1439   1.082       .  S
O1434      C1435   1.331       .  A
C1435      C1436   1.393       .  A
C1436      H1440   1.081       .  S
C1441      C1446   1.381       .  A
C1441      C1442   1.397       .  A
C1441      O1447   1.314       .  A
C1442      C1443   1.397       .  A
C1442      H1453   1.084       .  S
C1443      C1452   1.354       .  A
C1443      C1444   1.379       .  A
C1444      C1445   1.410       .  A
C1444      O1450   1.325       .  A
C1445      C1446   1.410       .  A
C1445      H1454   1.083       .  S
C1446      C1449   1.369       .  A
O1447      C1448   1.328       .  A
C1448      C1449   1.395       .  A
C1449      H1455   1.082       .  S
O1450      C1451   1.335       .  A
C1451      C1452   1.389       .  A
C1452      H1456   1.083       .  S
C1457      C1462   1.380       .  A
C1457      C1458   1.400       .  A
C1457      O1463   1.315       .  A
C1458      C1459   1.398       .  A
C1458      H1469   1.080       .  S
C1459      C1468   1.357       .  A
C1459      C1460   1.379       .  A
C1460      C1461   1.412       .  A
C1460      O1466   1.325       .  A
C1461      C1462   1.411       .  A
C1461      H1470   1.081       .  S
C1462      C1465   1.372       .  A
O1463      C1464   1.329       .  A
C1464      C1465   1.396       .  A
C1465      H1471   1.082       .  S
O1466      C1467   1.335       .  A
C1467      C1468   1.389       .  A
C1468      H1472   1.081       .  S
C1473      C1478   1.380       .  A
C1473      C1474   1.412       .  A
C1473      O1479   1.326       .  A
C1474      C1475   1.411       .  A
C1474      H1485   1.083       .  S
C1475      C1484   1.373       .  A
C1475      C1476   1.380       .  A
C1476      C1477   1.397       .  A
C1476      O1482   1.312       .  A
C1477      C1478   1.396       .  A
C1477      H1486   1.084       .  S
C1478      C1481   1.354       .  A
O1479      C1480   1.335       .  A
C1480      C1481   1.388       .  A
C1481      H1487   1.083       .  S
O1482      C1483   1.328       .  A
C1483      C1484   1.396       .  A
C1484      H1488   1.082       .  S
C1489      C1494   1.380       .  A
C1489      C1490   1.407       .  A
C1489      O1495   1.323       .  A
C1490      C1491   1.406       .  A
C1490      H1501   1.084       .  S
C1491      C1500   1.367       .  A
C1491      C1492   1.381       .  A
C1492      C1493   1.400       .  A
C1492      O1498   1.316       .  A
C1493      C1494   1.400       .  A
C1493      H1502   1.085       .  S
C1494      C1497   1.358       .  A
O1495      C1496   1.333       .  A
C1496      C1497   1.390       .  A
C1497      H1503   1.084       .  S
O1498      C1499   1.329       .  A
C1499      C1500   1.393       .  A
C1500      H1504   1.083       .  S
C1505      C1510   1.380       .  A
C1505      C1506   1.397       .  A
C1505      O1511   1.313       .  A
C1506      C1507   1.396       .  A
C1506      H1517   1.085       .  S
C1507      C1516   1.354       .  A
C1507      C1508   1.380       .  A
C1508      C1509   1.411       .  A
C1508      O1514   1.326       .  A
C1509      C1510   1.410       .  A
C1509      H1518   1.084       .  S
C1510      C1513   1.371       .  A
O1511      C1512   1.328       .  A
C1512      C1513   1.395       .  A
C1513      H1519   1.083       .  S
O1514      C1515   1.335       .  A
C1515      C1516   1.389       .  A
C1516      H1520   1.084       .  S
C1521      C1526   1.380       .  A
C1521      C1522   1.401       .  A
C1521      O1527   1.316       .  A
C1522      C1523   1.400       .  A
C1522      H1533   1.085       .  S
C1523      C1532   1.358       .  A
C1523      C1524   1.380       .  A
C1524      C1525   1.407       .  A
C1524      O1530   1.322       .  A
C1525      C1526   1.406       .  A
C1525      H1534   1.083       .  S
C1526      C1529   1.366       .  A
O1527      C1528   1.330       .  A
C1528      C1529   1.393       .  A
C1529      H1535   1.082       .  S
O1530      C1531   1.333       .  A
C1531      C1532   1.391       .  A
C1532      H1536   1.084       .  S
