geometry optimzed in LAMMPS
_audit_creation_date              2020-12-01 
_audit_creation_method            'lammps2cif' 
_symmetry_space_group_name_H-M    'P1' 
_symmetry_Int_Tables_number       1 
_symmetry_cell_setting            triclinic 
loop_ 
_symmetry_equiv_pos_as_xyz 
  x,y,z 
_cell_length_a                    83.10329106 
_cell_length_b                    65.30056269612413 
_cell_length_c                    100.1182740427656 
_cell_angle_alpha                 89.9725241183162 
_cell_angle_beta                  90.0171344863331 
_cell_angle_gamma                 90.02361423954743 
loop_ 
_atom_site_label 
_atom_site_type_symbol 
_atom_site_fract_x 
_atom_site_fract_y 
_atom_site_fract_z 
_atom_site_charge 
N1          N  0.64223243  0.17795204  0.46156995    -0.27000
N2          N  0.63784329  0.15858046  0.46032022    -0.34800
C3          C  0.62525172  0.15747816  0.45192088     0.01400
C4          C  0.62142089  0.17711204  0.44788488     0.07400
C5          C  0.63249146  0.18972009  0.45407914    -0.05700
H6          H  0.61906152  0.14348926  0.44924353     0.08100
H7          H  0.63327188  0.20622308  0.45334651     0.09300
Cu8        Cu  0.64827096  0.13474720  0.47091066     0.44200
Cu9        Cu  0.66066309  0.18763761  0.47390717     0.42000
Cu10       Cu  0.67948301  0.14918157  0.49449708     0.43900
N11         N  0.65928413  0.11443967  0.48394284    -0.34400
N12         N  0.67057503  0.11980992  0.49256405    -0.28600
C13         C  0.67478327  0.10341033  0.49987046    -0.04700
C14         C  0.66560435  0.08695738  0.49572607     0.07500
C15         C  0.65603750  0.09440970  0.48551823     0.01300
H16         H  0.68398296  0.10349469  0.50750723     0.09000
H17         H  0.64717026  0.08598359  0.47982602     0.08000
N18         N  0.68516080  0.17993029  0.49546761    -0.35800
N19         N  0.67826298  0.19398149  0.48788737    -0.28000
C20         C  0.68412715  0.21247068  0.49116219    -0.03200
C21         C  0.69507210  0.20996060  0.50142407     0.05400
C22         C  0.69561363  0.18909918  0.50378942     0.03500
H23         H  0.68049844  0.22673355  0.48655516     0.08600
H24         H  0.70299429  0.18117609  0.51104146     0.07400
N25         N  0.81070579  0.35752839  0.58395143    -0.27000
N26         N  0.81537706  0.37685401  0.58450809    -0.34800
C27         C  0.82871301  0.37807087  0.59208190     0.01400
C28         C  0.83248851  0.35859812  0.59660033     0.07400
C29         C  0.82090629  0.34595118  0.59110115    -0.05700
H30         H  0.83541755  0.39200692  0.59387613     0.08100
H31         H  0.82041344  0.32942773  0.59153308     0.09300
Cu32       Cu  0.80410841  0.40026972  0.57405943     0.44200
Cu33       Cu  0.79174754  0.34714738  0.57250800     0.42000
Cu34       Cu  0.77152150  0.38429397  0.55212876     0.43900
N35         N  0.79121573  0.42007358  0.56186924    -0.34400
N36         N  0.77934784  0.41417458  0.55395565    -0.28600
C37         C  0.77404719  0.43035137  0.54693104    -0.04700
C38         C  0.78311624  0.44722577  0.55049379     0.07500
C39         C  0.79376488  0.44022991  0.56008775     0.01300
H40         H  0.76438242  0.42973854  0.53972045     0.09000
H41         H  0.80305171  0.44898900  0.56505533     0.08000
N42         N  0.76712959  0.35322748  0.55096897    -0.35800
N43         N  0.77440619  0.33960416  0.55862425    -0.28000
C44         C  0.76953163  0.32074837  0.55511992    -0.03200
C45         C  0.75892386  0.32259336  0.54454008     0.05400
C46         C  0.75747156  0.34341682  0.54231851     0.03500
H47         H  0.77361330  0.30674214  0.55979801     0.08600
H48         H  0.75022209  0.35086459  0.53476755     0.07400
N49         N  0.64338440  0.85886472  0.57271064    -0.27000
N50         N  0.63614216  0.87618133  0.56947607    -0.34800
C51         C  0.62221179  0.87758327  0.57618588     0.01400
C52         C  0.62056636  0.86024046  0.58395821     0.07400
C53         C  0.63428325  0.84879753  0.58167549    -0.05700
H54         H  0.61393418  0.89032773  0.57550288     0.08100
H55         H  0.63731837  0.83415358  0.58606099     0.09300
Cu56       Cu  0.64536985  0.89711380  0.55611516     0.44200
Cu57       Cu  0.66487344  0.84961405  0.56422031     0.42000
Cu58       Cu  0.68098423  0.88295044  0.53803054     0.43900
N59         N  0.65631863  0.91582027  0.54225550    -0.34400
N60         N  0.66931981  0.91067567  0.53545913    -0.28600
C61         C  0.67365779  0.92649128  0.52763894    -0.04700
C62         C  0.66272123  0.94221216  0.52953331     0.07500
C63         C  0.65202405  0.93498319  0.53899098     0.01300
H64         H  0.68416022  0.92669025  0.52125565     0.09000
H65         H  0.64228895  0.94328093  0.54366860     0.08000
N66         N  0.69104531  0.85523655  0.54361719    -0.35800
N67         N  0.68529716  0.84326698  0.55315374    -0.28000
C68         C  0.69457098  0.82647730  0.55410850    -0.03200
C69         C  0.70686704  0.82811191  0.54487963     0.05400
C70         C  0.70415155  0.84639661  0.53828974     0.03500
H71         H  0.69242526  0.81391358  0.56092993     0.08600
H72         H  0.71101449  0.85263948  0.53005474     0.07400
N73         N  0.82599812  0.67048247  0.47431562    -0.27000
N74         N  0.82819511  0.65041805  0.47417608    -0.34800
C75         C  0.83927803  0.64579278  0.46485783     0.01400
C76         C  0.84401785  0.66375711  0.45868889     0.07400
C77         C  0.83546109  0.67910869  0.46499062    -0.05700
H78         H  0.84367627  0.63051926  0.46281808     0.08100
H79         H  0.83645256  0.69541111  0.46323834     0.09300
Cu80       Cu  0.81617980  0.63019186  0.48670274     0.44200
Cu81       Cu  0.81134512  0.68562116  0.48783664     0.42000
Cu82       Cu  0.79073256  0.65332715  0.51153833     0.43900
N83         N  0.80220586  0.61353894  0.50003394    -0.34400
N84         N  0.79279065  0.62211515  0.50906817    -0.28600
C85         C  0.78583475  0.60742470  0.51649216    -0.04700
C86         C  0.79106310  0.58864053  0.51186065     0.07500
C87         C  0.80153938  0.59309505  0.50150240     0.01300
H88         H  0.77830594  0.61032148  0.52508523     0.09000
H89         H  0.80853935  0.58228976  0.49574210     0.08000
N90         N  0.78966619  0.68484673  0.51184936    -0.35800
N91         N  0.79703473  0.69679232  0.50313393    -0.28000
C92         C  0.79286742  0.71633996  0.50553651    -0.03200
C93         C  0.78248794  0.71668299  0.51636659     0.05400
C94         C  0.78061395  0.69638778  0.51999484     0.03500
H95         H  0.79662833  0.72926634  0.49953651     0.08600
H96         H  0.77239625  0.69020684  0.52732241     0.07400
N97         N  0.31510010  0.89734001  0.58359005    -0.27000
N98         N  0.31736873  0.91733349  0.58271548    -0.34800
C99         C  0.32893080  0.92293574  0.59137860     0.01400
C100        C  0.33453677  0.90558684  0.59790127     0.07400
C101        C  0.32527844  0.88971708  0.59278377    -0.05700
H102        H  0.33288400  0.93853992  0.59265182     0.08100
H103        H  0.32626472  0.87362937  0.59523860     0.09300
Cu104      Cu  0.30624669  0.93599394  0.56870164     0.44200
Cu105      Cu  0.29870619  0.88104997  0.57192677     0.42000
Cu106      Cu  0.27704554  0.91133418  0.54773793     0.43900
N107        N  0.29642565  0.94956088  0.55182805    -0.34400
N108        N  0.28583333  0.94029446  0.54407028    -0.28600
C109        C  0.28254944  0.95231371  0.53352837    -0.04700
C110        C  0.29164284  0.96998066  0.53459946     0.07500
C111        C  0.30010788  0.96784539  0.54645487     0.01300
H112        H  0.27428058  0.94835891  0.52558811     0.09000
H113        H  0.30833641  0.97876144  0.55086677     0.08000
N114        N  0.27238074  0.88082076  0.55122997    -0.35800
N115        N  0.28067758  0.86930482  0.55962823    -0.28000
C116        C  0.27560832  0.84978377  0.55846330    -0.03200
C117        C  0.26335387  0.84919319  0.54907191     0.05400
C118        C  0.26175713  0.86910401  0.54463034     0.03500
H119        H  0.28065299  0.83693491  0.56385114     0.08600
H120        H  0.25395995  0.87452066  0.53672481     0.07400
N121        N  0.15599380  0.69396897  0.46558877    -0.27000
N122        N  0.15203186  0.67435418  0.46580817    -0.34800
C123        C  0.13841271  0.67169326  0.45878236     0.01400
C124        C  0.13346142  0.69054277  0.45400407     0.07400
C125        C  0.14500772  0.70428983  0.45835244    -0.05700
H126        H  0.13259442  0.65706754  0.45719013     0.08100
H127        H  0.14532344  0.72060758  0.45649302     0.09300
Cu128      Cu  0.16490988  0.65194325  0.47586637     0.44200
Cu129      Cu  0.17574532  0.70586522  0.47562609     0.42000
Cu130      Cu  0.19740894  0.66952447  0.49648722     0.43900
N131        N  0.17827994  0.63272246  0.48806209    -0.34400
N132        N  0.19007994  0.63928086  0.49580570    -0.28600
C133        C  0.19563452  0.62355000  0.50314630    -0.04700
C134        C  0.18707051  0.60616296  0.49971897     0.07500
C135        C  0.17605208  0.61259597  0.49022089     0.01300
H136        H  0.20500705  0.62476382  0.51060996     0.09000
H137        H  0.16671606  0.60348061  0.48558719     0.08000
N138        N  0.20227493  0.70057336  0.49589763    -0.35800
N139        N  0.19459291  0.71381393  0.48819938    -0.28000
C140        C  0.20019203  0.73274828  0.49073756    -0.03200
C141        C  0.21202433  0.73129703  0.50042885     0.05400
C142        C  0.21289596  0.71071151  0.50355502     0.03500
H143        H  0.19551701  0.74662554  0.48628401     0.08600
H144        H  0.22039971  0.70367400  0.51110253     0.07400
N145        N  0.30837631  0.18660848  0.44267082    -0.27000
N146        N  0.31285120  0.16724626  0.44355694    -0.34800
C147        C  0.32552661  0.16408881  0.43553083     0.01400
C148        C  0.32912910  0.18227776  0.42916166     0.07400
C149        C  0.31810856  0.19632659  0.43399818    -0.05700
H150        H  0.33201222  0.14977263  0.43475239     0.08100
H151        H  0.31768923  0.21256502  0.43187338     0.09300
Cu152      Cu  0.30257243  0.14630251  0.45639187     0.44200
Cu153      Cu  0.29033430  0.19896063  0.45437465     0.42000
Cu154      Cu  0.27196651  0.16440315  0.47882787     0.43900
N155        N  0.29125903  0.12782351  0.47020334    -0.34400
N156        N  0.27998324  0.13434557  0.47846572    -0.28600
C157        C  0.27544370  0.11873438  0.48638139    -0.04700
C158        C  0.28416715  0.10152034  0.48279426     0.07500
C159        C  0.29423259  0.10795790  0.47262869     0.01300
H160        H  0.26663539  0.11990365  0.49430062     0.09000
H161        H  0.30337847  0.09902893  0.46761078     0.08000
N162        N  0.26659223  0.19530354  0.47710804    -0.35800
N163        N  0.27319681  0.20770840  0.46820978    -0.28000
C164        C  0.26726840  0.22666351  0.46989151    -0.03200
C165        C  0.25658792  0.22623973  0.48046009     0.05400
C166        C  0.25627068  0.20608181  0.48468496     0.03500
H167        H  0.27051532  0.23978730  0.46386395     0.08600
H168        H  0.24918092  0.19975516  0.49275636     0.07400
N169        N  0.14435191  0.37306104  0.56335631    -0.27000
N170        N  0.14249179  0.39237990  0.56695496    -0.34800
C171        C  0.13146119  0.39331755  0.57676027     0.01400
C172        C  0.12635700  0.37359962  0.57955900     0.07400
C173        C  0.13464990  0.36118580  0.57076899    -0.05700
H174        H  0.12734164  0.40731696  0.58141462     0.08100
H175        H  0.13328737  0.34484961  0.56942269     0.09300
Cu176      Cu  0.15481808  0.41641001  0.55808146     0.44200
Cu177      Cu  0.15937335  0.36359434  0.54820609     0.42000
Cu178      Cu  0.18342415  0.40205362  0.53208751     0.43900
N179        N  0.16894470  0.43715314  0.54765129    -0.34400
N180        N  0.17950913  0.43186984  0.53839625    -0.28600
C181        C  0.18624166  0.44888751  0.53331530    -0.04700
C182        C  0.17969436  0.46569751  0.53972094     0.07500
C183        C  0.16862689  0.45769271  0.54863263     0.01300
H184        H  0.19474680  0.44905477  0.52513308     0.09000
H185        H  0.16062705  0.46619264  0.55510357     0.08000
N186        N  0.18422237  0.37130313  0.52702360    -0.35800
N187        N  0.17527403  0.35729126  0.53297448    -0.28000
C188        C  0.17900803  0.33877512  0.52807754    -0.03200
C189        C  0.19079518  0.34120777  0.51847628     0.05400
C190        C  0.19391892  0.36203867  0.51812693     0.03500
H191        H  0.17393110  0.32449826  0.53159750     0.08600
H192        H  0.20317179  0.36978423  0.51245899     0.07400
N193        N  0.95435678  0.69045305  0.38038562    -0.27000
N194        N  0.96291366  0.69437443  0.39121344    -0.34800
C195        C  0.95307137  0.69468155  0.40186920     0.01400
C196        C  0.93753185  0.69096734  0.39751306     0.07400
C197        C  0.93883492  0.68812712  0.38385895    -0.05700
H198        H  0.95701019  0.69677437  0.41207901     0.08100
H199        H  0.92924456  0.68430249  0.37698773     0.09300
Cu200      Cu  0.98767430  0.69786300  0.39104291     0.44200
Cu201      Cu  0.96433998  0.68783671  0.36149782     0.42000
Cu202      Cu  0.00803396  0.69183967  0.35931382     0.43900
N203        N  0.01240161  0.69943932  0.38874867    -0.34400
N204        N  0.01998912  0.69675670  0.37727533    -0.28600
C205        C  0.03596514  0.69809015  0.37941369    -0.04700
C206        C  0.03846604  0.70219363  0.39282713     0.07500
C207        C  0.02327687  0.70268900  0.39844088     0.01300
H208        H  0.04506713  0.69623518  0.37178695     0.09000
H209        H  0.02035438  0.70484161  0.40887760     0.08000
N210        N  0.99289497  0.68915209  0.34286508    -0.35800
N211        N  0.97706385  0.68751367  0.34369378    -0.28000
C212        C  0.97086581  0.68660681  0.33130155    -0.03200
C213        C  0.98334285  0.68819326  0.32219257     0.05400
C214        C  0.99715055  0.68944711  0.32990368     0.03500
H215        H  0.95817383  0.68502419  0.32910178     0.08600
H216        H  0.00939917  0.69083720  0.32634436     0.07400
N217        N  0.00303747  0.67520828  0.16215032    -0.27000
N218        N  0.99319843  0.67468505  0.15177714    -0.34800
C219        C  0.00184579  0.67458150  0.14046356     0.01400
C220        C  0.01794227  0.67484028  0.14380797     0.07400
C221        C  0.01831612  0.67535406  0.15765063    -0.05700
H222        H  0.99677275  0.67395995  0.13051674     0.08100
H223        H  0.02884580  0.67601872  0.16398383     0.09300
Cu224      Cu  0.96850579  0.67317699  0.15313389     0.44200
Cu225      Cu  0.99489372  0.67559522  0.18184182     0.42000
Cu226      Cu  0.95112546  0.67123496  0.18567087     0.43900
N227        N  0.94420775  0.66953621  0.15637090    -0.34400
N228        N  0.93768615  0.66853888  0.16837480    -0.28600
C229        C  0.92181651  0.66496295  0.16710514    -0.04700
C230        C  0.91820510  0.66395572  0.15361900     0.07500
C231        C  0.93273741  0.66665812  0.14713094     0.01300
H232        H  0.91359778  0.66283688  0.17536803     0.09000
H233        H  0.93492744  0.66581555  0.13649332     0.08000
N234        N  0.96706529  0.67490530  0.20136728    -0.35800
N235        N  0.98287470  0.67632506  0.20011885    -0.28000
C236        C  0.98938074  0.67870714  0.21234032    -0.03200
C237        C  0.97704822  0.67921313  0.22167687     0.05400
C238        C  0.96312255  0.67645831  0.21433524     0.03500
H239        H  0.00215801  0.67992696  0.21427740     0.08600
H240        H  0.95094055  0.67583092  0.21813312     0.07400
N241        N  0.51566348  0.20908068  0.36641751    -0.27000
N242        N  0.50612742  0.21051275  0.37693234    -0.34800
C243        C  0.51501596  0.21004231  0.38810717     0.01400
C244        C  0.53098060  0.20849909  0.38451408     0.07400
C245        C  0.53101136  0.20775979  0.37067384    -0.05700
H246        H  0.51016179  0.21020576  0.39813399     0.08100
H247        H  0.54132273  0.20555920  0.36423910     0.09300
Cu248      Cu  0.48142963  0.21135535  0.37596156     0.44200
Cu249      Cu  0.50671675  0.20702993  0.34706965     0.42000
Cu250      Cu  0.46235657  0.20493145  0.34444055     0.43900
N251        N  0.45686458  0.20999166  0.37373400    -0.34400
N252        N  0.44965876  0.20756679  0.36209202    -0.28600
C253        C  0.43369449  0.20618276  0.36408232    -0.04700
C254        C  0.43078303  0.20810056  0.37764068     0.07500
C255        C  0.44576838  0.21020808  0.38345779     0.01300
H256        H  0.42490950  0.20353254  0.35629519     0.09000
H257        H  0.44846570  0.21112705  0.39401477     0.08000
N258        N  0.47807657  0.20151570  0.32860339    -0.35800
N259        N  0.49395041  0.20255338  0.32944335    -0.28000
C260        C  0.50023608  0.19943711  0.31724087    -0.03200
C261        C  0.48775416  0.19585431  0.30837597     0.05400
C262        C  0.47389192  0.19759768  0.31590365     0.03500
H263        H  0.51297347  0.19977068  0.31500266     0.08600
H264        H  0.46162494  0.19595506  0.31243298     0.07400
N265        N  0.46383043  0.19139451  0.15135168    -0.27000
N266        N  0.47234115  0.19372932  0.14031718    -0.34800
C267        C  0.46243221  0.19260308  0.12974354     0.01400
C268        C  0.44689752  0.18949708  0.13432581     0.07400
C269        C  0.44827569  0.18865112  0.14809836    -0.05700
H270        H  0.46637459  0.19281980  0.11944656     0.08100
H271        H  0.43887023  0.18496409  0.15517236     0.09300
Cu272      Cu  0.49725426  0.19469073  0.13998848     0.44200
Cu273      Cu  0.47418362  0.18921692  0.17004951     0.42000
Cu274      Cu  0.51810655  0.18581246  0.17104244     0.43900
N275        N  0.52190135  0.19039106  0.14133041    -0.34400
N276        N  0.52964091  0.18707776  0.15266159    -0.28600
C277        C  0.54509539  0.18252963  0.14990975    -0.04700
C278        C  0.54714692  0.18301873  0.13617811     0.07500
C279        C  0.53216033  0.18791987  0.13109207     0.01300
H280        H  0.55380304  0.17761543  0.15727174     0.09000
H281        H  0.52873247  0.18839135  0.12067027     0.08000
N282        N  0.50333439  0.18416750  0.18773477    -0.35800
N283        N  0.48746342  0.18553094  0.18732422    -0.28000
C284        C  0.48162613  0.18444371  0.19981040    -0.03200
C285        C  0.49439579  0.18198136  0.20851417     0.05400
C286        C  0.50798817  0.18213095  0.20052794     0.03500
H287        H  0.46902993  0.18591410  0.20237976     0.08600
H288        H  0.52037891  0.18116857  0.20379737     0.07400
N289        N  0.80721115  0.61449133  0.08350705    -0.27000
N290        N  0.81105850  0.59492091  0.08447775    -0.34800
C291        C  0.82311217  0.59284135  0.09333084     0.01400
C292        C  0.82714852  0.61209753  0.09805709     0.07400
C293        C  0.81671975  0.62540848  0.09168469    -0.05700
H294        H  0.82818571  0.57830528  0.09629367     0.08100
H295        H  0.81610950  0.64185635  0.09288410     0.09300
Cu296      Cu  0.79980421  0.57203048  0.07366234     0.44200
Cu297      Cu  0.78887048  0.62542353  0.07154194     0.42000
Cu298      Cu  0.76809166  0.58841966  0.05112807     0.43900
N299        N  0.78762603  0.55256944  0.06085524    -0.34400
N300        N  0.77629974  0.55865753  0.05248363    -0.28600
C301        C  0.77157793  0.54267427  0.04501579    -0.04700
C302        C  0.78014391  0.52556962  0.04901455     0.07500
C303        C  0.79034520  0.53249559  0.05897798     0.01300
H304        H  0.76296698  0.54364417  0.03693062     0.09000
H305        H  0.79940580  0.52372403  0.06422491     0.08000
N306        N  0.76155688  0.61885820  0.05229815    -0.35800
N307        N  0.76913926  0.63236478  0.05983631    -0.28000
C308        C  0.76210083  0.65072837  0.05836811    -0.03200
C309        C  0.74936999  0.64866451  0.04955801     0.05400
C310        C  0.74952174  0.62828008  0.04577243     0.03500
H311        H  0.76613815  0.66463811  0.06318645     0.08600
H312        H  0.74178616  0.62095112  0.03851275     0.07400
N313        N  0.64979199  0.80264361  0.95765832    -0.27000
N314        N  0.64836166  0.82252085  0.95542128    -0.34800
C315        C  0.63768878  0.82545604  0.94552092     0.01400
C316        C  0.63230809  0.80652269  0.94124535     0.07400
C317        C  0.64010172  0.79243511  0.94925315    -0.05700
H318        H  0.63363692  0.84029685  0.94208147     0.08100
H319        H  0.63826524  0.77603000  0.94942179     0.09300
Cu320      Cu  0.65909712  0.84498672  0.96696307     0.44200
Cu321      Cu  0.66339226  0.78990976  0.97276019     0.42000
Cu322      Cu  0.68024317  0.82596714  0.99579026     0.43900
N323        N  0.66777288  0.86372237  0.98199770    -0.34400
N324        N  0.67523664  0.85658005  0.99267545    -0.28600
C325        C  0.67873635  0.87222821  0.00086349    -0.04700
C326        C  0.67310332  0.89011937  0.99513889     0.07500
C327        C  0.66634628  0.88417626  0.98309040     0.01300
H328        H  0.68483589  0.87067477  0.01035731     0.09000
H329        H  0.66104795  0.89388638  0.97554232     0.08000
N330        N  0.68360518  0.79471725  0.99728867    -0.35800
N331        N  0.67725272  0.78137041  0.98891031    -0.28000
C332        C  0.68154970  0.76238287  0.99264341    -0.03200
C333        C  0.69097636  0.76385109  0.00400787     0.05400
C334        C  0.69221191  0.78463764  0.00653775     0.03500
H335        H  0.67806659  0.74853172  0.98746608     0.08600
H336        H  0.69923802  0.79208779  0.01419697     0.07400
N337        N  0.66110122  0.12129297  0.07096494    -0.27000
N338        N  0.65476674  0.10273018  0.07123321    -0.34800
C339        C  0.64119080  0.10321603  0.07858184     0.01400
C340        C  0.63896784  0.12304458  0.08321336     0.07400
C341        C  0.65176148  0.13406150  0.07807180    -0.05700
H342        H  0.63324523  0.09028035  0.07995469     0.08100
H343        H  0.65400997  0.15027831  0.07926970     0.09300
Cu344      Cu  0.66470121  0.07806453  0.06094489     0.44200
Cu345      Cu  0.68159019  0.12889984  0.06031078     0.42000
Cu346      Cu  0.70065559  0.08954025  0.04095190     0.43900
N347        N  0.67711841  0.05662268  0.04950436    -0.34400
N348        N  0.69012052  0.06082516  0.04238414    -0.28600
C349        C  0.69475550  0.04386490  0.03583257    -0.04700
C350        C  0.68430267  0.02811777  0.03903698     0.07500
C351        C  0.67316108  0.03684462  0.04761774     0.01300
H352        H  0.70479201  0.04318407  0.02896426     0.09000
H353        H  0.66260418  0.02955978  0.05179920     0.08000
N354        N  0.70815262  0.11982936  0.04074137    -0.35800
N355        N  0.70104508  0.13423397  0.04788686    -0.28000
C356        C  0.70802959  0.15234864  0.04525981    -0.03200
C357        C  0.72003818  0.14922781  0.03593318     0.05400
C358        C  0.71993956  0.12840173  0.03339340     0.03500
H359        H  0.70446893  0.16678149  0.04966065     0.08600
H360        H  0.72757515  0.12019285  0.02647887     0.07400
N361        N  0.82892245  0.31579714  0.95988066    -0.27000
N362        N  0.83012610  0.33599340  0.95986588    -0.34800
C363        C  0.84001649  0.34174529  0.94992206     0.01400
C364        C  0.84508091  0.32434777  0.94326485     0.07400
C365        C  0.83798719  0.30819146  0.94996819    -0.05700
H366        H  0.84341779  0.35740981  0.94780480     0.08100
H367        H  0.83966602  0.29202832  0.94804347     0.09300
Cu368      Cu  0.81844356  0.35493459  0.97329302     0.44200
Cu369      Cu  0.81565800  0.29892097  0.97345384     0.42000
Cu370      Cu  0.79268253  0.32842375  0.99663442     0.43900
N371        N  0.80370975  0.36973142  0.98686166    -0.34400
N372        N  0.79393135  0.35994312  0.99507244    -0.28600
C373        C  0.78598026  0.37366717  0.00254794    -0.04700
C374        C  0.79093731  0.39312299  0.99888696     0.07500
C375        C  0.80236977  0.38998175  0.98900968     0.01300
H376        H  0.77755122  0.36970131  0.01036684     0.09000
H377        H  0.80963301  0.40147990  0.98408751     0.08000
N378        N  0.79341229  0.29678987  0.99691520    -0.35800
N379        N  0.80172343  0.28579382  0.98826646    -0.28000
C380        C  0.79909007  0.26579778  0.99066181    -0.03200
C381        C  0.78881268  0.26417919  0.00149578     0.05400
C382        C  0.78533851  0.28414305  0.00510147     0.03500
H383        H  0.80402191  0.25338781  0.98479610     0.08600
H384        H  0.77707107  0.28911896  0.01278926     0.07400
N385        N  0.95669953  0.29211228  0.86733517    -0.27000
N386        N  0.96478198  0.29554820  0.87848090    -0.34800
C387        C  0.95446121  0.30025163  0.88828438     0.01400
C388        C  0.93912594  0.30003007  0.88306541     0.07400
C389        C  0.94088774  0.29458718  0.86977936    -0.05700
H390        H  0.95791210  0.30398064  0.89841806     0.08100
H391        H  0.93144219  0.29281043  0.86243045     0.09300
Cu392      Cu  0.98940849  0.29522875  0.88006193     0.44200
Cu393      Cu  0.96796485  0.28583821  0.84932153     0.42000
Cu394      Cu  0.01218853  0.29069772  0.85027833     0.43900
N395        N  0.01408500  0.29668130  0.87986016    -0.34400
N396        N  0.02273068  0.29516779  0.86885085    -0.28600
C397        C  0.03837145  0.29755252  0.87199487    -0.04700
C398        C  0.03954032  0.30040991  0.88568779     0.07500
C399        C  0.02386594  0.30006814  0.89028740     0.01300
H400        H  0.04812976  0.29750276  0.86484510     0.09000
H401        H  0.01981040  0.30269076  0.90041093     0.08000
N402        N  0.99865987  0.28638806  0.83306218    -0.35800
N403        N  0.98282016  0.28431642  0.83270004    -0.28000
C404        C  0.97809300  0.28267892  0.81989456    -0.03200
C405        C  0.99159124  0.28354578  0.81182359     0.05400
C406        C  0.00437254  0.28614365  0.82051003     0.03500
H407        H  0.96569443  0.28149414  0.81667575     0.08600
H408        H  0.01688172  0.28839112  0.81787813     0.07400
N409        N  0.01924216  0.31900326  0.65499116    -0.27000
N410        N  0.01019011  0.32060205  0.64419235    -0.34800
C411        C  0.01929095  0.32699581  0.63393621     0.01400
C412        C  0.03479558  0.32982851  0.63852552     0.07400
C413        C  0.03442355  0.32435845  0.65188644    -0.05700
H414        H  0.01485597  0.32986119  0.62394610     0.08100
H415        H  0.04437805  0.32449228  0.65885481     0.09300
Cu416      Cu  0.98571294  0.31563407  0.64402276     0.44200
Cu417      Cu  0.01004095  0.31071123  0.67343981     0.42000
Cu418      Cu  0.96616054  0.30461651  0.67521422     0.43900
N419        N  0.96110295  0.31359454  0.64608401    -0.34400
N420        N  0.95374257  0.30985371  0.65752169    -0.28600
C421        C  0.93774810  0.31134922  0.65562052    -0.04700
C422        C  0.93499095  0.31599381  0.64230686     0.07500
C423        C  0.95008645  0.31751792  0.63662224     0.01300
H424        H  0.92881369  0.30975882  0.66341223     0.09000
H425        H  0.95295642  0.32235748  0.62657119     0.08000
N426        N  0.98169660  0.30117817  0.69133834    -0.35800
N427        N  0.99750062  0.30347228  0.69069134    -0.28000
C428        C  0.00380557  0.30071398  0.70293069    -0.03200
C429        C  0.99143562  0.29617278  0.71166964     0.05400
C430        C  0.97757154  0.29684822  0.70401332     0.03500
H431        H  0.01647233  0.30200113  0.70530018     0.08600
H432        H  0.96533987  0.29470573  0.70745257     0.07400
N433        N  0.12605957  0.66598406  0.06174988    -0.27000
N434        N  0.12367822  0.64606331  0.06301950    -0.34800
C435        C  0.11097621  0.64287358  0.07105052     0.01400
C436        C  0.10501965  0.66169708  0.07495561     0.07400
C437        C  0.11497769  0.67602247  0.06902405    -0.05700
H438        H  0.10671009  0.62794029  0.07410605     0.08100
H439        H  0.11425245  0.69250200  0.06995740     0.09300
Cu440      Cu  0.13787336  0.62404593  0.05400233     0.44200
Cu441      Cu  0.14435618  0.67842228  0.05028176     0.42000
Cu442      Cu  0.17056655  0.64209668  0.03343056     0.43900
N443        N  0.15300363  0.60486814  0.04341314    -0.34400
N444        N  0.16501569  0.61143761  0.03590361    -0.28600
C445        C  0.17197752  0.59530730  0.02989714    -0.04700
C446        C  0.16405560  0.57770416  0.03392253     0.07500
C447        C  0.15196231  0.58440391  0.04235973     0.01300
H448        H  0.18181734  0.59636865  0.02285530     0.09000
H449        H  0.14269785  0.57517787  0.04699824     0.08000
N450        N  0.17327543  0.67355993  0.03234760    -0.35800
N451        N  0.16376180  0.68677044  0.03849428    -0.28000
C452        C  0.16914214  0.70585632  0.03617126    -0.03200
C453        C  0.18277368  0.70454008  0.02830446     0.05400
C454        C  0.18493285  0.68388911  0.02591790     0.03500
H455        H  0.16371092  0.71963859  0.04011880     0.08600
H456        H  0.19452558  0.67685283  0.02024044     0.07400
N457        N  0.31586426  0.83666476  0.95688971    -0.27000
N458        N  0.32149836  0.85538627  0.95512176    -0.34800
C459        C  0.33466319  0.85449136  0.94733374     0.01400
C460        C  0.33757948  0.83418627  0.94418573     0.07400
C461        C  0.32532443  0.82331544  0.95033036    -0.05700
H462        H  0.34174066  0.86762225  0.94433705     0.08100
H463        H  0.32322432  0.80699129  0.94991210     0.09300
Cu464      Cu  0.31100856  0.88103194  0.96368237     0.44200
Cu465      Cu  0.29560274  0.83047992  0.96825136     0.42000
Cu466      Cu  0.27467009  0.87337443  0.98366483     0.43900
N467        N  0.29868411  0.90436085  0.97331862    -0.34400
N468        N  0.28536151  0.90175697  0.98035373    -0.28600
C469        C  0.28096951  0.91988026  0.98561815    -0.04700
C470        C  0.29202903  0.93456025  0.98167703     0.07500
C471        C  0.30315746  0.92411803  0.97401096     0.01300
H472        H  0.27092148  0.92202784  0.99234430     0.09000
H473        H  0.31399270  0.93031387  0.96958261     0.08000
N474        N  0.26794960  0.84291024  0.98617600    -0.35800
N475        N  0.27563449  0.82748293  0.98048228    -0.28000
C476        C  0.26876011  0.80980490  0.98427038    -0.03200
C477        C  0.25632158  0.81417195  0.99299155     0.05400
C478        C  0.25596728  0.83536020  0.99379720     0.03500
H479        H  0.27261863  0.79482535  0.98095517     0.08600
H480        H  0.24779984  0.84457952  0.99967333     0.07400
N481        N  0.33307411  0.15794360  0.06112803    -0.27000
N482        N  0.33724568  0.13846290  0.06026702    -0.34800
C483        C  0.35037075  0.13529372  0.06787863     0.01400
C484        C  0.35473382  0.15376925  0.07360132     0.07400
C485        C  0.34339670  0.16772025  0.06923891    -0.05700
H486        H  0.35652611  0.12077760  0.06888216     0.08100
H487        H  0.34285717  0.18387680  0.07159457     0.09300
Cu488      Cu  0.32523282  0.11771184  0.04812455     0.44200
Cu489      Cu  0.31420529  0.17071338  0.05064890     0.42000
Cu490      Cu  0.29341645  0.13862282  0.02684687     0.43900
N491        N  0.31171335  0.10046558  0.03478794    -0.34400
N492        N  0.30037954  0.10802749  0.02691724    -0.28600
C493        C  0.29429938  0.09278686  0.01939836    -0.04700
C494        C  0.30198157  0.07474950  0.02286281     0.07500
C495        C  0.31306365  0.08024188  0.03253060     0.01300
H496        H  0.28493238  0.09467578  0.01199206     0.09000
H497        H  0.32164020  0.07030332  0.03744285     0.08000
N498        N  0.28844383  0.16955688  0.02953582    -0.35800
N499        N  0.29608513  0.18113032  0.03831499    -0.28000
C500        C  0.29028329  0.20029852  0.03771051    -0.03200
C501        C  0.27848546  0.20092073  0.02799640     0.05400
C502        C  0.27748418  0.18111426  0.02311892     0.03500
H503        H  0.29418698  0.21269495  0.04408809     0.08600
H504        H  0.26947117  0.17556839  0.01540826     0.07400
N505        N  0.15133000  0.34564659  0.95831429    -0.27000
N506        N  0.14637532  0.36482774  0.95751127    -0.34800
C507        C  0.13443186  0.36602315  0.94848175     0.01400
C508        C  0.13190159  0.34669358  0.94320657     0.07400
C509        C  0.14269099  0.33411184  0.94981950    -0.05700
H510        H  0.12794213  0.37989404  0.94605068     0.08100
H511        H  0.14393928  0.31770131  0.94875476     0.09300
Cu512      Cu  0.15561053  0.38814538  0.96923536     0.44200
Cu513      Cu  0.16937315  0.33605740  0.97110921     0.42000
Cu514      Cu  0.18655719  0.37419025  0.99325170     0.43900
N515        N  0.16511510  0.40809736  0.98323194    -0.34400
N516        N  0.17610118  0.40295367  0.99217444    -0.28600
C517        C  0.17890240  0.41908142  0.00019336    -0.04700
C518        C  0.16907043  0.43507363  0.99620209     0.07500
C519        C  0.16073059  0.42764856  0.98525633     0.01300
H520        H  0.18732252  0.41907154  0.00843667     0.09000
H521        H  0.15202936  0.43579820  0.97922409     0.08000
N522        N  0.19462159  0.34421712  0.99210234    -0.35800
N523        N  0.18822928  0.33034190  0.98408413    -0.28000
C524        C  0.19612446  0.31255739  0.98562818    -0.03200
C525        C  0.20825173  0.31543249  0.99490879     0.05400
C526        C  0.20679397  0.33560710  0.99895676     0.03500
H527        H  0.19321584  0.29854676  0.98039070     0.08600
H528        H  0.21411647  0.34349191  0.00626388     0.07400
N529        N  0.45018637  0.78393441  0.87251933    -0.27000
N530        N  0.45862177  0.78451565  0.88369317    -0.34800
C531        C  0.44866029  0.78846973  0.89395127     0.01400
C532        C  0.43313142  0.79029389  0.88904076     0.07400
C533        C  0.43462440  0.78753988  0.87536029    -0.05700
H534        H  0.45247428  0.79016420  0.90422436     0.08100
H535        H  0.42532834  0.78904889  0.86788728     0.09300
Cu536      Cu  0.48336911  0.78087227  0.88427930     0.44200
Cu537      Cu  0.46050636  0.77953475  0.85387591     0.42000
Cu538      Cu  0.50401631  0.77340689  0.85274721     0.43900
N539        N  0.50802135  0.77723201  0.88246352    -0.34400
N540        N  0.51560192  0.77453504  0.87099359    -0.28600
C541        C  0.53153464  0.77368559  0.87328469    -0.04700
C542        C  0.53405227  0.77564664  0.88687974     0.07500
C543        C  0.51890467  0.77810621  0.89235645     0.01300
H544        H  0.54061129  0.77221851  0.86560207     0.09000
H545        H  0.51603785  0.78105820  0.90271896     0.08000
N546        N  0.48952093  0.77457507  0.83599099    -0.35800
N547        N  0.47371657  0.77683920  0.83638830    -0.28000
C548        C  0.46811272  0.77837006  0.82383465    -0.03200
C549        C  0.48097039  0.77675414  0.81513011     0.05400
C550        C  0.49437642  0.77457833  0.82318872     0.03500
H551        H  0.45564682  0.78106074  0.82124319     0.08600
H552        H  0.50681111  0.77389916  0.82000811     0.07400
N553        N  0.44765401  0.85992803  0.66984910    -0.27000
N554        N  0.45612234  0.86573176  0.65934180    -0.34800
C555        C  0.44630552  0.87465937  0.65042404     0.01400
C556        C  0.43089725  0.87475639  0.65559005     0.07400
C557        C  0.43214987  0.86521563  0.66792171    -0.05700
H558        H  0.44997363  0.87979555  0.64060907     0.08100
H559        H  0.42238603  0.86116641  0.67456088     0.09300
Cu560      Cu  0.48017320  0.85900006  0.65673408     0.44200
Cu561      Cu  0.45765607  0.84271612  0.68525228     0.42000
Cu562      Cu  0.49930047  0.82502321  0.68001473     0.43900
N563        N  0.50346076  0.84857479  0.65459446    -0.34400
N564        N  0.51051141  0.83577635  0.66297397    -0.28600
C565        C  0.52549257  0.83179995  0.65859456    -0.04700
C566        C  0.52783113  0.84248507  0.64681000     0.07500
C567        C  0.51370448  0.85311930  0.64467261     0.01300
H568        H  0.53408023  0.82209376  0.66368450     0.09000
H569        H  0.51103998  0.86336597  0.63646931     0.08000
N570        N  0.48563561  0.81854016  0.69674673    -0.35800
N571        N  0.47070828  0.82493734  0.69868861    -0.28000
C572        C  0.46590201  0.81902027  0.71091534    -0.03200
C573        C  0.47832344  0.80828389  0.71690121     0.05400
C574        C  0.49069056  0.80847389  0.70767927     0.03500
H575        H  0.45445134  0.82302040  0.71535296     0.08600
H576        H  0.50268048  0.80232144  0.70898043     0.07400
C577        C  0.48884454  0.77171999  0.77784691    -0.22100
C578        C  0.48056478  0.78884538  0.77300466     0.09800
C579        C  0.47215647  0.80164140  0.78192814     0.10200
C580        C  0.47229794  0.79704221  0.79560165    -0.17100
C581        C  0.48069074  0.77997548  0.80053515    -0.27500
C582        C  0.48889809  0.76695389  0.79150172     0.18600
C583        C  0.48057810  0.79288835  0.75849273     0.12500
C584        C  0.46325767  0.82028681  0.77702719    -0.11800
H585        H  0.46606804  0.80704990  0.80251582     0.12800
C586        C  0.49725393  0.74750902  0.79571772    -0.22700
H587        H  0.49509338  0.76181333  0.77087512     0.08500
C588        C  0.49358877  0.80283631  0.75221708     0.04800
C589        C  0.49274890  0.80698391  0.73849200    -0.19900
C590        C  0.47918649  0.80138888  0.73093963    -0.12200
C591        C  0.46649413  0.79051323  0.73717334     0.13500
C592        C  0.46727483  0.78667738  0.75093020    -0.22600
C593        C  0.50814123  0.80948619  0.76007471    -0.05700
H594        H  0.50250802  0.81522981  0.73372711     0.15000
C595        C  0.45224817  0.78208186  0.72964381    -0.15900
H596        H  0.45747575  0.77863548  0.75580067     0.09400
H597        H  0.51033456  0.74879999  0.79362484     0.07200
H598        H  0.49230589  0.73443024  0.78993666     0.08400
H599        H  0.49559101  0.74380010  0.80640961     0.07500
H600        H  0.45366127  0.81563511  0.76993619     0.02300
H601        H  0.47175518  0.83078230  0.77188469     0.02800
H602        H  0.45752975  0.82880715  0.78536416     0.06300
H603        H  0.51714155  0.81731307  0.75365277     0.05300
H604        H  0.51400920  0.79592891  0.76466007    -0.00500
H605        H  0.50444958  0.82026846  0.76807877     0.01000
H606        H  0.45122603  0.76538233  0.73157869     0.04700
H607        H  0.45325480  0.78399550  0.71869269     0.06600
H608        H  0.44107759  0.78971449  0.73312726     0.07500
C609        C  0.26547063  0.25379821  0.01631280    -0.22100
C610        C  0.24873202  0.25144099  0.01603608     0.09800
C611        C  0.24178044  0.23251624  0.01961750     0.10200
C612        C  0.25180102  0.21634746  0.02360746    -0.17100
C613        C  0.26858243  0.21868667  0.02400353    -0.27500
C614        C  0.27553453  0.23760423  0.02018788     0.18600
C615        C  0.23882673  0.26846405  0.01086828     0.12500
C616        C  0.22384926  0.22925917  0.01890204    -0.11800
H617        H  0.24652750  0.20177054  0.02639014     0.12800
C618        C  0.29350846  0.24051100  0.01945445    -0.22700
H619        H  0.27066529  0.26827724  0.01322098     0.08500
C620        C  0.23160267  0.28293798  0.01941174     0.04800
C621        C  0.22195893  0.29842313  0.01388183    -0.19900
C622        C  0.21965254  0.29990647  0.00000580    -0.12200
C623        C  0.22777726  0.28606593  0.99144479     0.13500
C624        C  0.23696693  0.27026759  0.99703221    -0.22600
C625        C  0.23415312  0.28208917  0.03429900    -0.05700
H626        H  0.21595251  0.30918653  0.02043718     0.15000
C627        C  0.22772911  0.28790772  0.97642986    -0.15900
H628        H  0.24298071  0.25942187  0.99052424     0.13000
H629        H  0.29887379  0.23957059  0.02956261     0.07200
H630        H  0.29673750  0.25571694  0.01525767     0.08400
H631        H  0.29887928  0.22859160  0.01292699     0.07500
H632        H  0.21961233  0.23175566  0.00851051     0.02300
H633        H  0.21760256  0.24015134  0.02562864     0.02800
H634        H  0.22043553  0.21348186  0.02193408     0.06300
H635        H  0.22770227  0.29465656  0.03950771     0.05300
H636        H  0.24718335  0.28355473  0.03655858    -0.00500
H637        H  0.22970020  0.26731856  0.03833375     0.01000
H638        H  0.24032981  0.28832592  0.97274158     0.04700
H639        H  0.22189569  0.30206136  0.97277307     0.06600
H640        H  0.22156055  0.27443745  0.97200600     0.07500
C641        C  0.37453282  0.80477631  0.93242164    -0.22100
C642        C  0.37739185  0.81414499  0.92006131     0.09800
C643        C  0.36682918  0.82947050  0.91541616     0.10200
C644        C  0.35381048  0.83549022  0.92343785    -0.17100
C645        C  0.35094354  0.82624449  0.93587986    -0.27500
C646        C  0.36139582  0.81057701  0.94039958     0.18600
C647        C  0.39174875  0.80799306  0.91226800     0.12500
C648        C  0.36940398  0.83954392  0.90204994    -0.11800
H649        H  0.34580855  0.84748564  0.91998653     0.12800
C650        C  0.35923998  0.80054442  0.95383599    -0.22700
H651        H  0.38275646  0.79303736  0.93589054     0.08500
C652        C  0.40684651  0.81726816  0.91442537     0.04800
C653        C  0.42005968  0.81122169  0.90664483    -0.19900
C654        C  0.41855855  0.79604138  0.89676836    -0.12200
C655        C  0.40344998  0.78634889  0.89490006     0.13500
C656        C  0.39022140  0.79256887  0.90264516    -0.22600
C657        C  0.40898069  0.83353113  0.92494626    -0.05700
H658        H  0.43161700  0.81852959  0.90821647     0.15000
C659        C  0.40125963  0.76883786  0.88527186    -0.15900
H660        H  0.37859961  0.78533571  0.90123512     0.09400
H661        H  0.36917670  0.78971088  0.95609803     0.07200
H662        H  0.34786834  0.79168916  0.95402702     0.08400
H663        H  0.35904856  0.81236843  0.96179994     0.07500
H664        H  0.36892827  0.82782758  0.89402683     0.02300
H665        H  0.38133387  0.84719155  0.90184817     0.02800
H666        H  0.36005002  0.85124675  0.89992751     0.06300
H667        H  0.42156546  0.83923557  0.92532950     0.05300
H668        H  0.40591294  0.82716473  0.93490999    -0.00500
H669        H  0.40096550  0.84671289  0.92277031     0.01000
H670        H  0.38913714  0.76180775  0.88620356     0.04700
H671        H  0.41031399  0.75673351  0.88731149     0.06600
H672        H  0.40244283  0.77430652  0.87485378     0.07500
C673        C  0.28215511  0.98933541  0.99180076    -0.22100
C674        C  0.29662081  0.99521776  0.99789599     0.09800
C675        C  0.30971539  0.98148696  0.99811377     0.10200
C676        C  0.30794083  0.96199210  0.99241329    -0.17100
C677        C  0.29334893  0.95586525  0.98656704    -0.27500
C678        C  0.28038808  0.96991069  0.98598195     0.18600
C679        C  0.29772718  0.01575588  0.00412333     0.12500
C680        C  0.32554951  0.98742468  0.00433665    -0.11800
H681        H  0.31789422  0.95128248  0.99280065     0.12800
C682        C  0.26477026  0.96530614  0.97893824    -0.22700
H683        H  0.27219466  0.00005117  0.99151397     0.08500
C684        C  0.29969515  0.03363266  0.99637952     0.04800
C685        C  0.30060356  0.05272809  0.00278233    -0.19900
C686        C  0.29977843  0.05431298  0.01675454    -0.12200
C687        C  0.29749795  0.03635668  0.02448332     0.13500
C688        C  0.29662705  0.01731095  0.01804648    -0.22600
C689        C  0.30124204  0.03248173  0.98141016    -0.05700
H690        H  0.30238009  0.06645924  0.99687296     0.15000
C691        C  0.29531899  0.03663146  0.03943232    -0.15900
H692        H  0.29488903  0.00353623  0.02392980     0.09400
H693        H  0.26255331  0.97713885  0.97118050     0.07200
H694        H  0.25472888  0.96563096  0.98624620     0.08400
H695        H  0.26473947  0.95026515  0.97384566     0.07500
H696        H  0.32384623  0.99075738  0.01511179     0.02300
H697        H  0.33038567  0.00125437  0.99927921     0.02800
H698        H  0.33461024  0.97500104  0.00344139     0.06300
H699        H  0.30307742  0.04785127  0.97690302     0.05300
H700        H  0.29014917  0.02579502  0.97704126    -0.00500
H701        H  0.31170313  0.02274244  0.97872786     0.01000
H702        H  0.28383586  0.02890224  0.04204651     0.04700
H703        H  0.29472725  0.05225924  0.04366368     0.06600
H704        H  0.30539592  0.02826102  0.04425173     0.07500
C705        C  0.16621408  0.51966581  0.03117629    -0.22100
C706        C  0.16819261  0.51729919  0.01738597     0.09800
C707        C  0.16957012  0.53469420  0.00913922     0.10200
C708        C  0.16869212  0.55423104  0.01490839    -0.17100
C709        C  0.16641028  0.55671693  0.02872681    -0.27500
C710        C  0.16559450  0.53914377  0.03701874     0.18600
C711        C  0.16863273  0.49636210  0.01184154     0.12500
C712        C  0.17168361  0.53259920  0.99425928    -0.11800
H713        H  0.16932101  0.56762684  0.00853422     0.12800
C714        C  0.16473194  0.54016459  0.05204604    -0.22700
H715        H  0.16539697  0.50616405  0.03745487     0.08500
C716        C  0.18314890  0.48534953  0.01081318     0.04800
C717        C  0.18285360  0.46529597  0.00580658    -0.19900
C718        C  0.16832536  0.45589379  0.00203483    -0.12200
C719        C  0.15367383  0.46677240  0.00366456     0.13500
C720        C  0.15411017  0.48705717  0.00822516    -0.22600
C721        C  0.19889947  0.49476831  0.01503686    -0.05700
H722        H  0.19406639  0.45700174  0.00469108     0.15000
C723        C  0.13730625  0.45734247  0.00152254    -0.15900
H724        H  0.14295986  0.49549219  0.00940605     0.09400
H725        H  0.17458778  0.53081100  0.05639765     0.07200
H726        H  0.15302527  0.53389706  0.05549208     0.08400
H727        H  0.16623509  0.55584069  0.05603640     0.07500
H728        H  0.16126835  0.52423635  0.98995663     0.02300
H729        H  0.18288174  0.52398777  0.99206037     0.02800
H730        H  0.17251168  0.54775944  0.98927076     0.06300
H731        H  0.20912156  0.48404448  0.01359361     0.05300
H732        H  0.19837348  0.49892384  0.02577961    -0.00500
H733        H  0.20130152  0.50875977  0.00906666     0.01000
H734        H  0.12973061  0.46000435  0.01049428     0.04700
H735        H  0.13767967  0.44056524  0.00008942     0.06600
H736        H  0.13140629  0.46460016  0.99276936     0.07500
C737        C  0.23994321  0.76582737  0.00924446    -0.22100
C738        C  0.22339702  0.76965938  0.00885875     0.09800
C739        C  0.21772224  0.78881327  0.00439100     0.10200
C740        C  0.22878879  0.80335989  0.99962171    -0.17100
C741        C  0.24540093  0.79927738  0.99952745    -0.27500
C742        C  0.25106204  0.78058223  0.00500682     0.18600
C743        C  0.21236717  0.75345531  0.01359380     0.12500
C744        C  0.20003904  0.79383479  0.00469263    -0.11800
H745        H  0.22442202  0.81778406  0.99567845     0.12800
C746        C  0.26864035  0.77594276  0.00720065    -0.22700
H747        H  0.24422643  0.75132593  0.01315730     0.08500
C748        C  0.20592198  0.73875572  0.00476861     0.04800
C749        C  0.19626744  0.72295920  0.00988363    -0.19900
C750        C  0.19310027  0.72145500  0.02362123    -0.12200
C751        C  0.19996856  0.73592356  0.03248980     0.13500
C752        C  0.20930743  0.75193392  0.02730246    -0.22600
C753        C  0.20945334  0.73958224  0.99001931    -0.05700
H754        H  0.19115087  0.71172264  0.00313769     0.15000
C755        C  0.19853169  0.73444487  0.04747570    -0.15900
H756        H  0.21467309  0.76299121  0.03404945     0.09400
H757        H  0.27237123  0.76308713  0.00064521     0.07200
H758        H  0.27055974  0.77139904  0.01777513     0.08400
H759        H  0.27657670  0.78926193  0.00539052     0.07500
H760        H  0.19553858  0.79286793  0.01511563     0.02300
H761        H  0.19325396  0.78284259  0.99839341     0.02800
H762        H  0.19763625  0.80953099  0.00091107     0.06300
H763        H  0.20351841  0.72685682  0.98454863     0.05300
H764        H  0.22262769  0.73840330  0.98835159    -0.00500
H765        H  0.20505851  0.75424612  0.98577333     0.01000
H766        H  0.21075326  0.73413750  0.05196447     0.04700
H767        H  0.19227937  0.72045658  0.05092048     0.06600
H768        H  0.19198411  0.74802137  0.05133747     0.07500
C769        C  0.00398431  0.27627833  0.77552573    -0.22100
C770        C  0.99306357  0.28927387  0.76909140     0.09800
C771        C  0.98133274  0.29975025  0.77661094     0.10200
C772        C  0.98099812  0.29728783  0.79052664    -0.17100
C773        C  0.99203712  0.28443313  0.79706454    -0.27500
C774        C  0.00347502  0.27342331  0.78940475     0.18600
C775        C  0.99347902  0.29070886  0.75436595     0.12500
C776        C  0.96914189  0.31341607  0.76992430    -0.11800
H777        H  0.97220538  0.30567311  0.79635365     0.12800
C778        C  0.01478668  0.25781188  0.79532099    -0.22700
H779        H  0.01270780  0.26789283  0.76961675     0.08500
C780        C  0.00242236  0.30598147  0.74773578     0.04800
C781        C  0.00183983  0.30707700  0.73373908    -0.19900
C782        C  0.99263865  0.29310573  0.72626967    -0.12200
C783        C  0.98441897  0.27709888  0.73296221     0.13500
C784        C  0.98473065  0.27636201  0.74694649    -0.22600
C785        C  0.01250025  0.32109102  0.75543787    -0.05700
H786        H  0.00831139  0.31917245  0.72862174     0.15000
C787        C  0.97576889  0.26005023  0.72577970    -0.15900
H788        H  0.97822517  0.26434382  0.75212565     0.09400
H789        H  0.02740040  0.26308564  0.79408202     0.07200
H790        H  0.01329025  0.24299902  0.79001541     0.08400
H791        H  0.01253229  0.25472176  0.80602048     0.07500
H792        H  0.96189466  0.30435785  0.76272078     0.02300
H793        H  0.97534929  0.32595535  0.76449854     0.02800
H794        H  0.96078687  0.32042756  0.77727073     0.06300
H795        H  0.01877303  0.33200424  0.74870284     0.05300
H796        H  0.02173874  0.31277324  0.76133443    -0.00500
H797        H  0.00478285  0.33004282  0.76233634     0.01000
H798        H  0.98052324  0.24507497  0.72926033     0.04700
H799        H  0.97742898  0.26044193  0.71482028     0.06600
H800        H  0.96270867  0.26079133  0.72805608     0.07500
C801        C  0.06991230  0.30457084  0.91396655    -0.22100
C802        C  0.08013326  0.31978886  0.90897065     0.09800
C803        C  0.07763210  0.32762903  0.89601506     0.10200
C804        C  0.06462607  0.32038554  0.88842956    -0.17100
C805        C  0.05406491  0.30552771  0.89354071    -0.27500
C806        C  0.05702674  0.29709323  0.90636213     0.18600
C807        C  0.09339064  0.32728197  0.91752074     0.12500
C808        C  0.08843287  0.34401021  0.89036747    -0.11800
H809        H  0.06238043  0.32686244  0.87863457     0.12800
C810        C  0.04730238  0.27977133  0.91221102    -0.22700
H811        H  0.07211044  0.29835238  0.92384835     0.08500
C812        C  0.09065215  0.34181926  0.92766971     0.04800
C813        C  0.10356048  0.34821695  0.93567561    -0.19900
C814        C  0.11915448  0.34047178  0.93371208    -0.12200
C815        C  0.12195840  0.32650355  0.92312678     0.13500
C816        C  0.10894673  0.31978549  0.91535866    -0.22600
C817        C  0.07412113  0.35056860  0.93001303    -0.05700
H818        H  0.10138843  0.35900286  0.94370038     0.15000
C819        C  0.13848131  0.31904299  0.91926847    -0.15900
H820        H  0.11099212  0.30889021  0.90736361     0.09400
H821        H  0.04075944  0.28524216  0.92119359     0.07200
H822        H  0.05550800  0.26715273  0.91519832     0.08400
H823        H  0.03856156  0.27311998  0.90509226     0.07500
H824        H  0.10097061  0.33823962  0.88974634     0.02300
H825        H  0.08812351  0.35772956  0.89691015     0.02800
H826        H  0.08462219  0.34871025  0.88018381     0.06300
H827        H  0.07411646  0.36198005  0.93823613     0.05300
H828        H  0.06562599  0.33811922  0.93271570    -0.00500
H829        H  0.06980754  0.35827910  0.92079646     0.01000
H830        H  0.13932026  0.30228653  0.92101351     0.04700
H831        H  0.14830259  0.32680136  0.92474564     0.06600
H832        H  0.14054694  0.32213693  0.90849414     0.07500
C833        C  0.86915357  0.30595855  0.91342850    -0.22100
C834        C  0.88343808  0.31691898  0.91525886     0.09800
C835        C  0.88452518  0.33177074  0.92542338     0.10200
C836        C  0.87143483  0.33461799  0.93403626    -0.17100
C837        C  0.85733729  0.32294307  0.93264973    -0.27500
C838        C  0.85593457  0.30903435  0.92185290     0.18600
C839        C  0.89734872  0.31201564  0.90674042     0.12500
C840        C  0.89962535  0.34420636  0.92734899    -0.11800
H841        H  0.87247898  0.34538967  0.94222449     0.12800
C842        C  0.84064892  0.29760573  0.91865083    -0.22700
H843        H  0.86834362  0.29488525  0.90538419     0.08500
C844        C  0.90845820  0.29680409  0.91053945     0.04800
C845        C  0.92182343  0.29307595  0.90241173    -0.19900
C846        C  0.92427228  0.30416334  0.89057827    -0.12200
C847        C  0.91309557  0.31947018  0.88678607     0.13500
C848        C  0.89962764  0.32301208  0.89488898    -0.22600
C849        C  0.90624479  0.28463988  0.92320453    -0.05700
H850        H  0.93047396  0.28147586  0.90532724     0.15000
C851        C  0.91529557  0.33307848  0.87475745    -0.15900
H852        H  0.89106080  0.33481087  0.89214267     0.09400
H853        H  0.84260052  0.28091955  0.92003111     0.07200
H854        H  0.83726676  0.30050366  0.90808435     0.08400
H855        H  0.83029657  0.30248804  0.92482838     0.07500
H856        H  0.90219188  0.35312850  0.91815039     0.02300
H857        H  0.90994100  0.33391348  0.92946939     0.02800
H858        H  0.89845981  0.35512826  0.93579435     0.06300
H859        H  0.91608459  0.27335456  0.92467645     0.05300
H860        H  0.89467799  0.27615189  0.92279459    -0.00500
H861        H  0.90612550  0.29508618  0.93194574     0.01000
H862        H  0.90517444  0.33067066  0.86768887     0.04700
H863        H  0.92671406  0.33037321  0.86937853     0.06600
H864        H  0.91531489  0.34934971  0.87798315     0.07500
C865        C  0.73515978  0.19775396  0.01918711    -0.22100
C866        C  0.75182642  0.19545929  0.02061727     0.09800
C867        C  0.75804799  0.17762747  0.02668304     0.10200
C868        C  0.74736992  0.16249411  0.03126866    -0.17100
C869        C  0.73065497  0.16491012  0.02999438    -0.27500
C870        C  0.72448193  0.18258654  0.02359841     0.18600
C871        C  0.76244046  0.21199294  0.01561133     0.12500
C872        C  0.77591015  0.17455020  0.02824794    -0.11800
H873        H  0.75206121  0.14890674  0.03612412     0.12800
C874        C  0.70682711  0.18570839  0.02077455    -0.22700
H875        H  0.73045319  0.21141250  0.01441526     0.08500
C876        C  0.76493356  0.21504892  0.00181143     0.04800
C877        C  0.77426295  0.23171123  0.99752801    -0.19900
C878        C  0.78105773  0.24544640  0.00672351    -0.12200
C879        C  0.77918843  0.24175990  0.02058043     0.13500
C880        C  0.76968499  0.22524463  0.02482632    -0.22600
C881        C  0.75767043  0.20082052  0.99161289    -0.05700
H882        H  0.77575453  0.23446097  0.98692186     0.15000
C883        C  0.78734866  0.25447454  0.03116930    -0.15900
H884        H  0.76788865  0.22268354  0.03542544     0.09400
H885        H  0.70507955  0.18826756  0.00990215     0.07200
H886        H  0.70244894  0.19937594  0.02627042     0.08400
H887        H  0.69929069  0.17240334  0.02356080     0.07500
H888        H  0.78102869  0.18678910  0.03465569     0.02300
H889        H  0.78179170  0.17503612  0.01829629     0.02800
H890        H  0.77873331  0.15956936  0.03295357     0.06300
H891        H  0.76115312  0.20513989  0.98127849     0.05300
H892        H  0.74434801  0.20129162  0.99225053    -0.00500
H893        H  0.76186947  0.18493476  0.99347818     0.01000
H894        H  0.77813357  0.26246091  0.03727112     0.04700
H895        H  0.79577235  0.26597076  0.02702464     0.06600
H896        H  0.79451414  0.24431088  0.03778605     0.07500
C897        C  0.60589838  0.78207714  0.91474671    -0.22100
C898        C  0.59168576  0.79323925  0.91642851     0.09800
C899        C  0.59103639  0.80930132  0.92580392     0.10200
C900        C  0.60471381  0.81373629  0.93345304    -0.17100
C901        C  0.61893536  0.80235327  0.93196781    -0.27500
C902        C  0.61964575  0.78657514  0.92228460     0.18600
C903        C  0.57755345  0.78776487  0.90829661     0.12500
C904        C  0.57586070  0.82153123  0.92782938    -0.11800
H905        H  0.60415082  0.82575513  0.94090260     0.12800
C906        C  0.63473163  0.77462617  0.91926714    -0.22700
H907        H  0.60630319  0.76990789  0.90738370     0.08500
C908        C  0.57505136  0.79639590  0.89556865     0.04800
C909        C  0.56103894  0.79139243  0.88848567    -0.19900
C910        C  0.54956203  0.77794068  0.89389091    -0.12200
C911        C  0.55262818  0.76837782  0.90633303     0.13500
C912        C  0.56649775  0.77369518  0.91347414    -0.22600
C913        C  0.58701642  0.81115290  0.88963193    -0.05700
H914        H  0.55875374  0.79860307  0.87891751     0.15000
C915        C  0.54188693  0.75209086  0.91220935    -0.15900
H916        H  0.56875823  0.76675381  0.92313853     0.09400
H917        H  0.63748701  0.77581271  0.90844046     0.07200
H918        H  0.63285174  0.75825922  0.92184139     0.08400
H919        H  0.64544286  0.78033069  0.92467738     0.07500
H920        H  0.56596248  0.81123014  0.93105019     0.02300
H921        H  0.57240089  0.82915296  0.91834215     0.02800
H922        H  0.57742386  0.83353999  0.93557586     0.06300
H923        H  0.58318663  0.81655256  0.87960211     0.05300
H924        H  0.59888954  0.80353357  0.88858559    -0.00500
H925        H  0.58831562  0.82471965  0.89622184     0.01000
H926        H  0.54913299  0.73819186  0.91437597     0.04700
H927        H  0.53208896  0.74730830  0.90539772     0.06600
H928        H  0.53653581  0.75773916  0.92167454     0.07500
C929        C  0.66422074  0.94402985  0.00766845    -0.22100
C930        C  0.67916463  0.94933108  0.01313764     0.09800
C931        C  0.69208329  0.93541024  0.01246921     0.10200
C932        C  0.68976241  0.91638356  0.00629434    -0.17100
C933        C  0.67482817  0.91096699  0.00074960    -0.27500
C934        C  0.66183453  0.92495531  0.00149891     0.18600
C935        C  0.68094037  0.96946188  0.01972209     0.12500
C936        C  0.70827501  0.94062945  0.01831784    -0.11800
H937        H  0.69967998  0.90563154  0.00580415     0.12800
C938        C  0.64527102  0.91961378  0.99645444    -0.22700
H939        H  0.65435295  0.95483181  0.00836436     0.08500
C940        C  0.68489886  0.98715898  0.01237940     0.04800
C941        C  0.68625148  0.00596532  0.01904400    -0.19900
C942        C  0.68378493  0.00747314  0.03290396    -0.12200
C943        C  0.68041261  0.98946283  0.04031618     0.13500
C944        C  0.67875187  0.97075799  0.03356067    -0.22600
C945        C  0.68760653  0.98616753  0.99751621    -0.05700
H946        H  0.68890604  0.01965818  0.01333229     0.15000
C947        C  0.67919304  0.98905429  0.05533573    -0.15900
H948        H  0.67601786  0.95696986  0.03916354     0.09400
H949        H  0.64541669  0.91801828  0.98544509     0.07200
H950        H  0.63636486  0.93171807  0.99891468     0.08400
H951        H  0.64111182  0.90511013  0.00110765     0.07500
H952        H  0.70706427  0.94347691  0.02920142     0.02300
H953        H  0.71313177  0.95457887  0.01342370     0.02800
H954        H  0.71708152  0.92802883  0.01689036     0.06300
H955        H  0.69067558  0.00141121  0.99329927     0.05300
H956        H  0.67653593  0.98059125  0.99248482    -0.00500
H957        H  0.69767423  0.97553685  0.99528836     0.01000
H958        H  0.66676994  0.98478614  0.05831939     0.04700
H959        H  0.68238680  0.00380591  0.06006855     0.06600
H960        H  0.68767977  0.97745661  0.05936675     0.07500
C961        C  0.76754161  0.47729672  0.03045109    -0.22100
C962        C  0.78256327  0.46838602  0.02803643     0.09800
C963        C  0.79662191  0.47763321  0.03308458     0.10200
C964        C  0.79535825  0.49597530  0.04024999    -0.17100
C965        C  0.78034312  0.50522219  0.04253242    -0.27500
C966        C  0.76617982  0.49538175  0.03790372     0.18600
C967        C  0.78332050  0.44899970  0.02051612     0.12500
C968        C  0.81295334  0.46827224  0.03074229    -0.11800
H969        H  0.80622161  0.50340535  0.04377074     0.12800
C970        C  0.74944028  0.50280422  0.04109332    -0.22700
H971        H  0.75677490  0.46978550  0.02677413     0.08500
C972        C  0.78290698  0.42999092  0.02713565     0.04800
C973        C  0.78493836  0.41200611  0.01972176    -0.19900
C974        C  0.78697828  0.41256174  0.00577978    -0.12200
C975        C  0.78604406  0.43166194  0.99906462     0.13500
C976        C  0.78467176  0.44968959  0.00659044    -0.22600
C977        C  0.78047517  0.42873896  0.04203040    -0.05700
H978        H  0.78540128  0.39748586  0.02494241     0.15000
C979        C  0.78572175  0.43370399  0.98406964    -0.15900
H980        H  0.78445493  0.46439709  0.00155698     0.09400
H981        H  0.74237380  0.49006791  0.04553552     0.07200
H982        H  0.74339493  0.50790978  0.03177939     0.08400
H983        H  0.74923783  0.51541163  0.04846550     0.07500
H984        H  0.81531450  0.46722786  0.01985060     0.02300
H985        H  0.81341653  0.45268591  0.03514590     0.02800
H986        H  0.82270122  0.47753253  0.03534266     0.06300
H987        H  0.78039185  0.41263882  0.04561160     0.05300
H988        H  0.76877106  0.43581368  0.04472297    -0.00500
H989        H  0.79029420  0.43698097  0.04727648     0.01000
H990        H  0.77508267  0.44291278  0.98106466     0.04700
H991        H  0.78460419  0.41883047  0.97886565     0.06600
H992        H  0.79677896  0.44164206  0.98061159     0.07500
C993        C  0.70669544  0.72882656  0.03148505    -0.22100
C994        C  0.71394218  0.71344288  0.02386950     0.09800
C995        C  0.71323772  0.71422862  0.00982781     0.10200
C996        C  0.70563451  0.73087724  0.00365134    -0.17100
C997        C  0.69877138  0.74674649  0.01122379    -0.27500
C998        C  0.69905322  0.74550680  0.02536046     0.18600
C999        C  0.72287050  0.69712950  0.03083586     0.12500
C1000       C  0.72059565  0.69755941  0.00141439    -0.11800
H1001       H  0.70526515  0.73165959  0.99284141     0.12800
C1002       C  0.69089160  0.76114687  0.03410824    -0.22700
H1003       H  0.70722606  0.72786256  0.04228891     0.08500
C1004       C  0.73925585  0.69960945  0.03402883     0.04800
C1005       C  0.74742539  0.68365965  0.04043667    -0.19900
C1006       C  0.73953818  0.66536360  0.04384948    -0.12200
C1007       C  0.72284720  0.66333411  0.04119556     0.13500
C1008       C  0.71480377  0.67915909  0.03447420    -0.22600
C1009       C  0.74812863  0.71902614  0.03055217    -0.05700
H1010       H  0.76016084  0.68532693  0.04250157     0.15000
C1011       C  0.71293908  0.64529928  0.04576219    -0.15900
H1012       H  0.70208763  0.67763547  0.03224635     0.09400
H1013       H  0.69740061  0.77591838  0.03366749     0.07200
H1014       H  0.69077216  0.75631072  0.04474683     0.08400
H1015       H  0.67820958  0.76323874  0.03089593     0.07500
H1016       H  0.71482700  0.68266838  0.00381889     0.02300
H1017       H  0.73369505  0.69648248  0.00346406     0.02800
H1018       H  0.71896164  0.70053161  0.99057484     0.06300
H1019       H  0.76092026  0.71841600  0.03374518     0.05300
H1020       H  0.74235975  0.73224649  0.03561059    -0.00500
H1021       H  0.74783243  0.72151267  0.01958749     0.01000
H1022       H  0.70247385  0.65087445  0.05162132     0.04700
H1023       H  0.71963041  0.63468582  0.05234387     0.06600
H1024       H  0.70843730  0.63674112  0.03693950     0.07500
C1025       C  0.39189347  0.17787194  0.08910889    -0.22100
C1026       C  0.39344533  0.16622705  0.10077183     0.09800
C1027       C  0.38259617  0.15009582  0.10331714     0.10200
C1028       C  0.37027657  0.14603737  0.09408016    -0.17100
C1029       C  0.36857590  0.15786586  0.08244463    -0.27500
C1030       C  0.37974127  0.17375930  0.07980049     0.18600
C1031       C  0.40689492  0.17102408  0.10990562     0.12500
C1032       C  0.38401848  0.13730030  0.11577421    -0.11800
H1033       H  0.36174119  0.13385291  0.09606700     0.12800
C1034       C  0.37972010  0.18617035  0.06709222    -0.22700
H1035       H  0.40046222  0.19003733  0.08713373     0.08500
C1036       C  0.42245315  0.16329023  0.10754662     0.04800
C1037       C  0.43519159  0.16968464  0.11570309    -0.19900
C1038       C  0.43277401  0.18373679  0.12613799    -0.12200
C1039       C  0.41708639  0.19147510  0.12849429     0.13500
C1040       C  0.40431558  0.18479021  0.12041006    -0.22600
C1041       C  0.42559649  0.14833195  0.09639412    -0.05700
H1042       H  0.44712476  0.16355715  0.11395448     0.15000
C1043       C  0.41339556  0.20750378  0.13888233    -0.15900
H1044       H  0.39233618  0.19089353  0.12201532     0.09400
H1045       H  0.39170594  0.18502392  0.06224488     0.07200
H1046       H  0.37729368  0.20248521  0.06946823     0.08400
H1047       H  0.37077082  0.18086603  0.05968043     0.07500
H1048       H  0.38277451  0.14721524  0.12471943     0.02300
H1049       H  0.39593783  0.12964260  0.11602688     0.02800
H1050       H  0.37456195  0.12529532  0.11623045     0.06300
H1051       H  0.43843841  0.14366362  0.09600210     0.05300
H1052       H  0.42244527  0.15541037  0.08665712    -0.00500
H1053       H  0.41819546  0.13435946  0.09787518     0.01000
H1054       H  0.40738055  0.22075796  0.13404203     0.04700
H1055       H  0.42423115  0.21353927  0.14394255     0.06600
H1056       H  0.40516823  0.20098209  0.14651652     0.07500
C1057       C  0.58930846  0.17445670  0.12232543    -0.22100
C1058       C  0.58640965  0.15849870  0.11325892     0.09800
C1059       C  0.57065636  0.15085740  0.11167130     0.10200
C1060       C  0.55811014  0.15930651  0.11922430    -0.17100
C1061       C  0.56097103  0.17505960  0.12845748    -0.27500
C1062       C  0.57674416  0.18284407  0.12998477     0.18600
C1063       C  0.60001839  0.14978450  0.10557081     0.12500
C1064       C  0.56710009  0.13381102  0.10197635    -0.11800
H1065       H  0.54600609  0.15337418  0.11805453     0.12800
C1066       C  0.58026071  0.20036067  0.13932443    -0.22700
H1067       H  0.60144462  0.18031979  0.12340106     0.08500
C1068       C  0.60536796  0.15880468  0.09357121     0.04800
C1069       C  0.61802749  0.14963892  0.08647143    -0.19900
C1070       C  0.62531238  0.13149128  0.09099727    -0.12200
C1071       C  0.61994354  0.12252227  0.10307862     0.13500
C1072       C  0.60736592  0.13183642  0.11021966    -0.22600
C1073       C  0.59760263  0.17796649  0.08822294    -0.05700
H1074       H  0.62217170  0.15657423  0.07725385     0.15000
C1075       C  0.62777396  0.10364435  0.10878440    -0.15900
H1076       H  0.60316851  0.12506927  0.11947577     0.09400
H1077       H  0.59308466  0.20510342  0.13882420     0.07200
H1078       H  0.57765187  0.19579034  0.14976809     0.08400
H1079       H  0.57272523  0.21376991  0.13660764     0.07500
H1080       H  0.57400533  0.11991789  0.10479503     0.02300
H1081       H  0.57056847  0.13857455  0.09172755     0.02800
H1082       H  0.55411800  0.12976215  0.10188777     0.06300
H1083       H  0.60314046  0.18292588  0.07865711     0.05300
H1084       H  0.59897321  0.19059362  0.09555547    -0.00500
H1085       H  0.58460129  0.17517043  0.08642816     0.01000
H1086       H  0.62278537  0.09967110  0.11874679     0.04700
H1087       H  0.64090432  0.10623399  0.10995386     0.06600
H1088       H  0.62566082  0.09036357  0.10213218     0.07500
C1089       C  0.50141000  0.17816736  0.27397495    -0.22100
C1090       C  0.49063810  0.18887598  0.26581376     0.09800
C1091       C  0.47852832  0.20105987  0.27161715     0.10200
C1092       C  0.47777922  0.20275348  0.28555537    -0.17100
C1093       C  0.48873859  0.19232928  0.29381099    -0.27500
C1094       C  0.50040243  0.17931505  0.28792396     0.18600
C1095       C  0.49206292  0.18673133  0.25118872     0.12500
C1096       C  0.46659400  0.21251006  0.26309339    -0.11800
H1097       H  0.46875600  0.21258216  0.29001916     0.12800
C1098       C  0.51139935  0.16556810  0.29586916    -0.22700
H1099       H  0.51042315  0.16841867  0.26940448     0.08500
C1100       C  0.50385257  0.19752239  0.24392236     0.04800
C1101       C  0.50460163  0.19513525  0.23002853    -0.19900
C1102       C  0.49381566  0.18222451  0.22325944    -0.12200
C1103       C  0.48234865  0.17085142  0.23067339     0.13500
C1104       C  0.48151577  0.17348999  0.24454240    -0.22600
C1105       C  0.51536675  0.21189381  0.25079766    -0.05700
H1106       H  0.51337326  0.20385306  0.22437911     0.15000
C1107       C  0.47123299  0.15524500  0.22450128    -0.15900
H1108       H  0.47269390  0.16494788  0.25026500     0.09400
H1109       H  0.52405176  0.17068989  0.29463174     0.07200
H1110       H  0.51031417  0.14961356  0.29213159     0.08400
H1111       H  0.50842574  0.16501591  0.30662562     0.07500
H1112       H  0.45946828  0.20153202  0.25703866     0.02300
H1113       H  0.47306712  0.22316674  0.25632094     0.02800
H1114       H  0.45807641  0.22160137  0.26924445     0.06300
H1115       H  0.52363374  0.21941226  0.24358791     0.05300
H1116       H  0.52278025  0.20330812  0.25812554    -0.00500
H1117       H  0.50852026  0.22402510  0.25608995     0.01000
H1118       H  0.47266560  0.14036609  0.22974788     0.04700
H1119       H  0.47375719  0.15233378  0.21382342     0.06600
H1120       H  0.45857184  0.16041027  0.22557599     0.07500
C1121       C  0.06436634  0.66080671  0.09222117    -0.22100
C1122       C  0.06786619  0.67174177  0.10390021     0.09800
C1123       C  0.08330596  0.68022827  0.10574333     0.10200
C1124       C  0.09509777  0.67720968  0.09592062    -0.17100
C1125       C  0.09181743  0.66558021  0.08446036    -0.27500
C1126       C  0.07618759  0.65759242  0.08244257     0.18600
C1127       C  0.05536860  0.67332591  0.11433898     0.12500
C1128       C  0.08733327  0.69224744  0.11813650    -0.11800
H1129       H  0.10706581  0.68343991  0.09736414     0.12800
C1130       C  0.07181082  0.64616011  0.06988117    -0.22700
H1131       H  0.05239485  0.65453385  0.09086831     0.08500
C1132       C  0.04338677  0.68857079  0.11389361     0.04800
C1133       C  0.03152908  0.68896790  0.12385832    -0.19900
C1134       C  0.03150451  0.67456702  0.13428332    -0.12200
C1135       C  0.04356874  0.65931953  0.13471379     0.13500
C1136       C  0.05538555  0.65892277  0.12471119    -0.22600
C1137       C  0.04311310  0.70430327  0.10289101    -0.05700
H1138       H  0.02216350  0.70050720  0.12348789     0.15000
C1139       C  0.04361666  0.64288032  0.14527580    -0.15900
H1140       H  0.06459733  0.64717151  0.12485953     0.09400
H1141       H  0.07439207  0.65585360  0.06102119     0.07200
H1142       H  0.05884014  0.64205813  0.06966380     0.08400
H1143       H  0.07878490  0.63173910  0.06919877     0.07500
H1144       H  0.08583015  0.68240772  0.12709497     0.02300
H1145       H  0.07920207  0.70567204  0.11895598     0.02800
H1146       H  0.09993496  0.69791267  0.11796951     0.06300
H1147       H  0.03297437  0.71522668  0.10408997     0.05300
H1148       H  0.04176796  0.69657971  0.09307873    -0.00500
H1149       H  0.05451490  0.71316783  0.10296297     0.01000
H1150       H  0.05338779  0.63156430  0.14360888     0.04700
H1151       H  0.03197660  0.63452721  0.14514906     0.06600
H1152       H  0.04553878  0.64979731  0.15525636     0.07500
C1153       C  0.88385088  0.65897579  0.12892937    -0.22100
C1154       C  0.87598340  0.64166663  0.13394979     0.09800
C1155       C  0.88105434  0.63286390  0.14608816     0.10200
C1156       C  0.89440939  0.64120124  0.15272357    -0.17100
C1157       C  0.90278596  0.65802770  0.14739721    -0.27500
C1158       C  0.89703346  0.66752023  0.13560374     0.18600
C1159       C  0.86296567  0.63261048  0.12586632     0.12500
C1160       C  0.87263006  0.61442456  0.15181484    -0.11800
H1161       H  0.89874895  0.63398707  0.16178594     0.12800
C1162       C  0.90415652  0.68689015  0.12991450    -0.22700
H1163       H  0.87966845  0.66584788  0.11969354     0.08500
C1164       C  0.84701091  0.63970721  0.12678327     0.04800
C1165       C  0.83546115  0.63214854  0.11784611    -0.19900
C1166       C  0.83955748  0.61775072  0.10798699    -0.12200
C1167       C  0.85558656  0.61047764  0.10721757     0.13500
C1168       C  0.86706969  0.61798252  0.11624219    -0.22600
C1169       C  0.84230582  0.65556646  0.13697980    -0.05700
H1170       H  0.82320787  0.63776801  0.11840723     0.15000
C1171       C  0.86097842  0.59584551  0.09647687    -0.15900
H1172       H  0.87946330  0.61290427  0.11555276     0.09400
H1173       H  0.89450160  0.69848552  0.12864508     0.07200
H1174       H  0.90958063  0.68363504  0.12000710     0.08400
H1175       H  0.91338430  0.69387581  0.13645783     0.07500
H1176       H  0.87331370  0.60148758  0.14464769     0.02300
H1177       H  0.85980691  0.61811340  0.15374726     0.02800
H1178       H  0.87816654  0.60943027  0.16137500     0.06300
H1179       H  0.82931969  0.65945724  0.13633037     0.05300
H1180       H  0.84933792  0.66980532  0.13533953    -0.00500
H1181       H  0.84476335  0.64970879  0.14718444     0.01000
H1182       H  0.87420360  0.59340589  0.09671363     0.04700
H1183       H  0.85782086  0.60203365  0.08648273     0.06600
H1184       H  0.85525238  0.58069566  0.09793838     0.07500
C1185       C  0.96961105  0.69592102  0.28615648    -0.22100
C1186       C  0.98082543  0.68384393  0.27932815     0.09800
C1187       C  0.99310895  0.67382634  0.28650216     0.10200
C1188       C  0.99369215  0.67576554  0.30045506    -0.17100
C1189       C  0.98237578  0.68769677  0.30739993    -0.27500
C1190       C  0.97041700  0.69839992  0.30006244     0.18600
C1191       C  0.97977427  0.68247522  0.26459233     0.12500
C1192       C  0.00546767  0.66092340  0.27942615    -0.11800
H1193       H  0.00291517  0.66766057  0.30599284     0.12800
C1194       C  0.95888543  0.71344617  0.30628886    -0.22700
H1195       H  0.96042552  0.70396101  0.28052144     0.08500
C1196       C  0.96888528  0.66907228  0.25827251     0.04800
C1197       C  0.96831603  0.66842031  0.24427022    -0.19900
C1198       C  0.97819172  0.68112668  0.23641674    -0.12200
C1199       C  0.98866497  0.69517167  0.24285432     0.13500
C1200       C  0.98956628  0.69526837  0.25685207    -0.22600
C1201       C  0.95797550  0.65538088  0.26631742    -0.05700
H1202       H  0.96018879  0.65777155  0.23942584     0.15000
C1203       C  0.99835631  0.71112095  0.23550959    -0.15900
H1204       H  0.99764051  0.70587858  0.26181024     0.09400
H1205       H  0.94641881  0.70742563  0.30557819     0.07200
H1206       H  0.95953311  0.72822870  0.30082059     0.08400
H1207       H  0.96167593  0.71697972  0.31683411     0.07500
H1208       H  0.01235638  0.67052827  0.27228216     0.02300
H1209       H  0.99938650  0.64838926  0.27388683     0.02800
H1210       H  0.01414088  0.65394258  0.28653563     0.06300
H1211       H  0.95030459  0.64565618  0.25981168     0.05300
H1212       H  0.94994936  0.66483144  0.27267867    -0.00500
H1213       H  0.96529685  0.64517310  0.27277925     0.01000
H1214       H  0.99586982  0.72644415  0.23985582     0.04700
H1215       H  0.99534759  0.71224995  0.22478353     0.06600
H1216       H  0.01138315  0.70775791  0.23661230     0.07500
C1217       C  0.07156341  0.35896259  0.62618451    -0.22100
C1218       C  0.07443140  0.34887690  0.61408703     0.09800
C1219       C  0.06442811  0.33255263  0.61012294     0.10200
C1220       C  0.05162606  0.32670320  0.61838433    -0.17100
C1221       C  0.04865946  0.33677029  0.63052306    -0.27500
C1222       C  0.05865109  0.35332257  0.63441327     0.18600
C1223       C  0.08781302  0.35589804  0.60555783     0.12500
C1224       C  0.06723090  0.32143269  0.59714890    -0.11800
H1225       H  0.04391293  0.31412220  0.61538607     0.12800
C1226       C  0.05570858  0.36608704  0.64671656    -0.22700
H1227       H  0.07923551  0.37165785  0.62905846     0.08500
C1228       C  0.08580365  0.37214850  0.59643635     0.04800
C1229       C  0.09870846  0.37780808  0.58821448    -0.19900
C1230       C  0.11346804  0.36742274  0.58885406    -0.12200
C1231       C  0.11556679  0.35144888  0.59825317     0.13500
C1232       C  0.10265095  0.34588019  0.60650195    -0.22600
C1233       C  0.06999525  0.38329227  0.59528755    -0.05700
H1234       H  0.09717563  0.39011650  0.58105721     0.15000
C1235       C  0.13148887  0.34072903  0.59999438    -0.15900
H1236       H  0.10406024  0.33356912  0.61367688     0.09400
H1237       H  0.05458103  0.38243910  0.64380653     0.07200
H1238       H  0.06603494  0.36446188  0.65367484     0.08400
H1239       H  0.04454288  0.36198413  0.65208564     0.07500
H1240       H  0.07937488  0.31435739  0.59719428     0.02300
H1241       H  0.06637691  0.33236119  0.58868069     0.02800
H1242       H  0.05822929  0.30910157  0.59553327     0.06300
H1243       H  0.07044659  0.39551857  0.58757984     0.05300
H1244       H  0.06694222  0.39050500  0.60499937    -0.00500
H1245       H  0.06033681  0.37235118  0.59249278     0.01000
H1246       H  0.13121557  0.32977225  0.60848226     0.04700
H1247       H  0.14107690  0.35216021  0.60202096     0.06600
H1248       H  0.13453340  0.33189308  0.59090208     0.07500
C1249       C  0.39615814  0.21422927  0.40206129    -0.22100
C1250       C  0.38666469  0.19733557  0.39863994     0.09800
C1251       C  0.39136543  0.18442312  0.38806745     0.10200
C1252       C  0.40559971  0.18874747  0.38110676    -0.17100
C1253       C  0.41529181  0.20552557  0.38462382    -0.27500
C1254       C  0.41038253  0.21862585  0.39514090     0.18600
C1255       C  0.37195062  0.19333360  0.40644703     0.12500
C1256       C  0.38158213  0.16583477  0.38439308    -0.11800
H1257       H  0.40943114  0.17862571  0.37314051     0.12800
C1258       C  0.41943075  0.23769231  0.39912279    -0.22700
H1259       H  0.39236526  0.22413604  0.41016367     0.08500
C1260       C  0.37269487  0.18344479  0.41893535     0.04800
C1261       C  0.35844760  0.18002846  0.42604270    -0.19900
C1262       C  0.34350445  0.18636070  0.42097024    -0.12200
C1263       C  0.34276782  0.19615677  0.40836609     0.13500
C1264       C  0.35708043  0.19964744  0.40130520    -0.22600
C1265       C  0.38850441  0.17640420  0.42470083    -0.05700
H1266       H  0.35898710  0.17254194  0.43570081     0.15000
C1267       C  0.32720248  0.20241360  0.40179917    -0.15900
H1268       H  0.35663871  0.20713506  0.39163993     0.09400
H1269       H  0.42411050  0.23591069  0.40944762     0.07200
H1270       H  0.41114599  0.25102626  0.39885133     0.08400
H1271       H  0.42956310  0.24139064  0.39237989     0.07500
H1272       H  0.36931524  0.17057377  0.38128314     0.02300
H1273       H  0.38067110  0.15542755  0.39313514     0.02800
H1274       H  0.38711787  0.15718549  0.37602312     0.06300
H1275       H  0.38689160  0.16871328  0.43450745     0.05300
H1276       H  0.39659577  0.18973829  0.42618366    -0.00500
H1277       H  0.39430473  0.16537868  0.41777320     0.01000
H1278       H  0.32706715  0.21927279  0.40035995     0.04700
H1279       H  0.31641098  0.19800009  0.40759399     0.06600
H1280       H  0.32623693  0.19489143  0.39188427     0.07500
C1281       C  0.24364418  0.27836098  0.49347761    -0.22100
C1282       C  0.22709033  0.27525898  0.49499080     0.09800
C1283       C  0.22022547  0.25620531  0.49163877     0.10200
C1284       C  0.23024385  0.24040239  0.48709929    -0.17100
C1285       C  0.24689566  0.24336949  0.48568836    -0.27500
C1286       C  0.25372042  0.26259147  0.48903150     0.18600
C1287       C  0.21742038  0.29183395  0.50094931     0.12500
C1288       C  0.20235044  0.25267942  0.49269879    -0.11800
H1289       H  0.22502875  0.22573564  0.48444910     0.12800
C1290       C  0.27155350  0.26685980  0.48875144    -0.22700
H1291       H  0.24881406  0.29301770  0.49623639     0.08500
C1292       C  0.21464094  0.29248791  0.51482754     0.04800
C1293       C  0.20574782  0.30871301  0.52017986    -0.19900
C1294       C  0.19998404  0.32459184  0.51203412    -0.12200
C1295       C  0.20289790  0.32401840  0.49811785     0.13500
C1296       C  0.21156830  0.30751750  0.49272577    -0.22600
C1297       C  0.22139363  0.27633734  0.52402060    -0.05700
H1298       H  0.20358185  0.30925413  0.53085148     0.15000
C1299       C  0.19651520  0.34032773  0.48888399    -0.15900
H1300       H  0.21388408  0.30685876  0.48207956     0.09400
H1301       H  0.27545732  0.27254409  0.49869249     0.07200
H1302       H  0.27416249  0.27880780  0.48116019     0.08400
H1303       H  0.27892935  0.25318285  0.48656044     0.07500
H1304       H  0.19590704  0.26371241  0.48617040     0.02300
H1305       H  0.19829733  0.25485927  0.50315457     0.02800
H1306       H  0.19897387  0.23694067  0.48956125     0.06300
H1307       H  0.21820954  0.27932528  0.53461527     0.05300
H1308       H  0.23471611  0.27609689  0.52321276    -0.00500
H1309       H  0.21660684  0.26104731  0.52129194     0.01000
H1310       H  0.20221896  0.35525955  0.49116940     0.04700
H1311       H  0.18326680  0.34161822  0.49003446     0.06600
H1312       H  0.19912441  0.33673788  0.47825901     0.07500
C1313       C  0.07068269  0.71779693  0.41771732    -0.22100
C1314       C  0.08142293  0.70140281  0.41651798     0.09800
C1315       C  0.07882485  0.68634225  0.40665160     0.10200
C1316       C  0.06515196  0.68768084  0.39844838    -0.17100
C1317       C  0.05393472  0.70355924  0.40007534    -0.27500
C1318       C  0.05705174  0.71922452  0.40951695     0.18600
C1319       C  0.09473632  0.69964780  0.42625868     0.12500
C1320       C  0.09018644  0.66852923  0.40511297    -0.11800
H1321       H  0.06279746  0.67573467  0.39119126     0.12800
C1322       C  0.04648906  0.73783349  0.41107542    -0.22700
H1323       H  0.07288189  0.72946854  0.42520236     0.08500
C1324       C  0.10997149  0.70840445  0.42387145     0.04800
C1325       C  0.12224712  0.70580405  0.43336401    -0.19900
C1326       C  0.11957220  0.69468436  0.44517339    -0.12200
C1327       C  0.10399744  0.68684276  0.44783553     0.13500
C1328       C  0.09185788  0.68919405  0.43823477    -0.22600
C1329       C  0.11327229  0.72029982  0.41127853    -0.05700
H1330       H  0.13411919  0.71197822  0.43138139     0.15000
C1331       C  0.09951338  0.67660139  0.46081431    -0.15900
H1332       H  0.07997899  0.68296433  0.44014705     0.09400
H1333       H  0.05390795  0.75187417  0.40992623     0.07200
H1334       H  0.04097479  0.73784022  0.42117470     0.08400
H1335       H  0.03680124  0.73869426  0.40350270     0.07500
H1336       H  0.09061933  0.65960515  0.41454783     0.02300
H1337       H  0.10244698  0.67418948  0.40273699     0.02800
H1338       H  0.08634786  0.65807285  0.39696539     0.06300
H1339       H  0.12582492  0.72613014  0.41098335     0.05300
H1340       H  0.10499896  0.73361213  0.41067100    -0.00500
H1341       H  0.11138837  0.71036501  0.40242719     0.01000
H1342       H  0.08901474  0.68460502  0.46526528     0.04700
H1343       H  0.10925199  0.67703318  0.46834938     0.06600
H1344       H  0.09618273  0.66039793  0.45890592     0.07500
C1345       C  0.19854746  0.51607414  0.52882634    -0.22100
C1346       C  0.18475665  0.52748058  0.52580151     0.09800
C1347       C  0.16939930  0.51913834  0.52830162     0.10200
C1348       C  0.16816332  0.49924844  0.53348608    -0.17100
C1349       C  0.18193952  0.48743924  0.53605001    -0.27500
C1350       C  0.19735803  0.49619995  0.53406936     0.18600
C1351       C  0.18658229  0.54771682  0.51935576     0.12500
C1352       C  0.15433660  0.53102762  0.52513294    -0.11800
H1353       H  0.15636120  0.49257238  0.53501253     0.12800
C1354       C  0.21277071  0.48533562  0.53764627    -0.22700
H1355       H  0.21031535  0.52270359  0.52702547     0.08500
C1356       C  0.18745291  0.56593234  0.52686146     0.04800
C1357       C  0.18809732  0.58480245  0.52015629    -0.19900
C1358       C  0.18798710  0.58578679  0.50612898    -0.12200
C1359       C  0.18802420  0.56737287  0.49865742     0.13500
C1360       C  0.18707731  0.54859065  0.50539196    -0.22600
C1361       C  0.18754123  0.56541252  0.54190126    -0.05700
H1362       H  0.18824384  0.59887367  0.52589366     0.15000
C1363       C  0.18960883  0.56679562  0.48366256    -0.15900
H1364       H  0.18675714  0.53446496  0.49970299     0.09400
H1365       H  0.21987305  0.49503909  0.54459305     0.07200
H1366       H  0.21995995  0.48265156  0.52846803     0.08400
H1367       H  0.21077370  0.47049315  0.54272896     0.07500
H1368       H  0.15398801  0.53471565  0.51431067     0.02300
H1369       H  0.15414232  0.54548470  0.53095051     0.02800
H1370       H  0.14331012  0.52220887  0.52763455     0.06300
H1371       H  0.18826581  0.58104307  0.54623088     0.05300
H1372       H  0.19809918  0.55653598  0.54545854    -0.00500
H1373       H  0.17637354  0.55805339  0.54563111     0.01000
H1374       H  0.20002818  0.55703008  0.48089995     0.04700
H1375       H  0.19176575  0.58203767  0.47917301     0.06600
H1376       H  0.17853128  0.56014893  0.47922841     0.07500
C1377       C  0.37555408  0.90983567  0.61511012    -0.22100
C1378       C  0.37410433  0.89467811  0.62491161     0.09800
C1379       C  0.35943899  0.88409965  0.62637543     0.10200
C1380       C  0.34659473  0.88862746  0.61774517    -0.17100
C1381       C  0.34804288  0.90349086  0.60762510    -0.27500
C1382       C  0.36277192  0.91441807  0.60641503     0.18600
C1383       C  0.38848848  0.88923804  0.63291132     0.12500
C1384       C  0.35750180  0.86773282  0.63685787    -0.11800
H1385       H  0.33540682  0.88024700  0.61878363     0.12800
C1386       C  0.36561405  0.93017678  0.59567426    -0.22700
H1387       H  0.38694642  0.91777865  0.61407032     0.08500
C1388       C  0.39982662  0.87497391  0.62808628     0.04800
C1389       C  0.41349120  0.87051350  0.63576394    -0.19900
C1390       C  0.41605911  0.87992639  0.64817677    -0.12200
C1391       C  0.40478545  0.89435813  0.65296632     0.13500
C1392       C  0.39106516  0.89882607  0.64526204    -0.22600
C1393       C  0.39750628  0.86450717  0.61481438    -0.05700
H1394       H  0.42221178  0.85953633  0.63208665     0.15000
C1395       C  0.40753022  0.90562681  0.66588678    -0.15900
H1396       H  0.38238932  0.90996388  0.64879642     0.09400
H1397       H  0.37837890  0.93521333  0.59537665     0.07200
H1398       H  0.35831305  0.94401404  0.59769234     0.08400
H1399       H  0.36265048  0.92370917  0.58572025     0.07500
H1400       H  0.35949367  0.87442216  0.64691603     0.02300
H1401       H  0.36639199  0.85532192  0.63515538     0.02800
H1402       H  0.34527546  0.86086491  0.63664656     0.06300
H1403       H  0.40747205  0.85371401  0.61257315     0.05300
H1404       H  0.39706126  0.87610777  0.60671471    -0.00500
H1405       H  0.38607576  0.85570760  0.61487719     0.01000
H1406       H  0.39783938  0.91693013  0.66787746     0.04700
H1407       H  0.41915133  0.91399957  0.66543547     0.06600
H1408       H  0.40780244  0.89464070  0.67433463     0.07500
C1409       C  0.30333746  0.01782106  0.51512734    -0.22100
C1410       C  0.28822154  0.02437721  0.51069313     0.09800
C1411       C  0.27451447  0.01226904  0.51318100     0.10200
C1412       C  0.27613506  0.99422494  0.52064534    -0.17100
C1413       C  0.29118257  0.98794390  0.52557945    -0.27500
C1414       C  0.30508472  0.99948104  0.52226926     0.18600
C1415       C  0.28697342  0.04416047  0.50362044     0.12500
C1416       C  0.25815169  0.01867331  0.50822809    -0.11800
H1417       H  0.26549260  0.98533068  0.52299527     0.12800
C1418       C  0.32196323  0.99264348  0.52551649    -0.22700
H1419       H  0.31387412  0.02698537  0.51285247     0.08500
C1420       C  0.28586318  0.06274344  0.51070713     0.04800
C1421       C  0.28454128  0.08116671  0.50360526    -0.19900
C1422       C  0.28429893  0.08140645  0.48957836    -0.12200
C1423       C  0.28493152  0.06261082  0.48250370     0.13500
C1424       C  0.28653930  0.04425403  0.48964973    -0.22600
C1425       C  0.28609576  0.06308346  0.52575215    -0.05700
H1426       H  0.28404967  0.09550404  0.50904051     0.15000
C1427       C  0.28323797  0.06108532  0.46754243    -0.15900
H1428       H  0.28711932  0.02983545  0.48429884     0.09400
H1429       H  0.32740721  0.00329463  0.53288374     0.07200
H1430       H  0.32935128  0.99283149  0.51627307     0.08400
H1431       H  0.32255272  0.97682427  0.52944067     0.07500
H1432       H  0.25826074  0.01973693  0.49716195     0.02300
H1433       H  0.25494297  0.03383262  0.51247662     0.02800
H1434       H  0.24868031  0.00753682  0.51115371     0.06300
H1435       H  0.28499588  0.07889963  0.52972365     0.05300
H1436       H  0.29758029  0.05651571  0.52945562    -0.00500
H1437       H  0.27589868  0.05390361  0.52969457     0.01000
H1438       H  0.29460927  0.05520463  0.46317136     0.04700
H1439       H  0.28015636  0.07581619  0.46272546     0.06600
H1440       H  0.27335470  0.05026977  0.46508094     0.07500
C1441       C  0.23453772  0.78071252  0.50800268    -0.22100
C1442       C  0.23404720  0.78075584  0.52199068     0.09800
C1443       C  0.22669956  0.76436967  0.52883123     0.10200
C1444       C  0.21983353  0.74831439  0.52148781    -0.17100
C1445       C  0.22017188  0.74826995  0.50746125    -0.27500
C1446       C  0.22791728  0.76450640  0.50062302     0.18600
C1447       C  0.24165552  0.79788110  0.52931332     0.12500
C1448       C  0.22622676  0.76378606  0.54386827    -0.11800
H1449       H  0.21395707  0.73585487  0.52672774     0.12800
C1450       C  0.23012073  0.76487895  0.48567815    -0.22700
H1451       H  0.24043857  0.79322280  0.50282325     0.08500
C1452       C  0.25842561  0.79855016  0.53142778     0.04800
C1453       C  0.26511172  0.81509373  0.53844346    -0.19900
C1454       C  0.25539321  0.83100732  0.54330105    -0.12200
C1455       C  0.23849743  0.82994451  0.54153209     0.13500
C1456       C  0.23187626  0.81347632  0.53442094    -0.22600
C1457       C  0.26922719  0.78183491  0.52623788    -0.05700
H1458       H  0.27803988  0.81593309  0.53978388     0.15000
C1459       C  0.22703764  0.84546777  0.54732972    -0.15900
H1460       H  0.21896155  0.81267301  0.53295460     0.09400
H1461       H  0.24312298  0.76642239  0.48331605     0.07200
H1462       H  0.22359671  0.77819100  0.48140594     0.08400
H1463       H  0.22585081  0.75077649  0.48068383     0.07500
H1464       H  0.21949515  0.77722701  0.54770759     0.02300
H1465       H  0.23867784  0.76410770  0.54788917     0.02800
H1466       H  0.22022010  0.74972185  0.54762625     0.06300
H1467       H  0.28202248  0.78459632  0.52889280     0.05300
H1468       H  0.26833676  0.78101007  0.51518917    -0.00500
H1469       H  0.26555210  0.76690287  0.53058413     0.01000
H1470       H  0.22059739  0.85345078  0.53912448     0.04700
H1471       H  0.23307501  0.85705163  0.55366102     0.06600
H1472       H  0.21807855  0.83751644  0.55372566     0.07500
C1473       C  0.86762571  0.68057030  0.42809582    -0.22100
C1474       C  0.88307078  0.67373551  0.43146692     0.09800
C1475       C  0.88549586  0.66279340  0.44344386     0.10200
C1476       C  0.87236213  0.65912907  0.45191679    -0.17100
C1477       C  0.85694097  0.66640290  0.44873481    -0.27500
C1478       C  0.85446643  0.67692244  0.43653767     0.18600
C1479       C  0.89659695  0.67838303  0.42236916     0.12500
C1480       C  0.90197866  0.65528209  0.44734278    -0.11800
H1481       H  0.87421869  0.65107574  0.46126280     0.12800
C1482       C  0.83812385  0.68399761  0.43191221    -0.22700
H1483       H  0.86582845  0.68874767  0.41878313     0.08500
C1484       C  0.90071913  0.66512747  0.41181212     0.04800
C1485       C  0.91393242  0.66993452  0.40368052    -0.19900
C1486       C  0.92306347  0.68773650  0.40584699    -0.12200
C1487       C  0.91847663  0.70143533  0.41613858     0.13500
C1488       C  0.90540716  0.69640379  0.42437637    -0.22600
C1489       C  0.89124881  0.64586063  0.40922533    -0.05700
H1490       H  0.91737258  0.65949400  0.39576681     0.15000
C1491       C  0.92657575  0.72179384  0.41844075    -0.15900
H1492       H  0.90195057  0.70671468  0.43236552     0.09400
H1493       H  0.83544545  0.67716603  0.42200055     0.07200
H1494       H  0.83808357  0.70093631  0.43095511     0.08400
H1495       H  0.82827456  0.67944271  0.43874136     0.07500
H1496       H  0.91033439  0.66847361  0.44828289     0.02300
H1497       H  0.90662039  0.64463550  0.43961419     0.02800
H1498       H  0.90177582  0.64703076  0.45704473     0.06300
H1499       H  0.89611598  0.63716835  0.40059267     0.05300
H1500       H  0.87853077  0.64981689  0.40702177    -0.00500
H1501       H  0.89167040  0.63577570  0.41814482     0.01000
H1502       H  0.91743652  0.73418268  0.41800545     0.04700
H1503       H  0.93581791  0.72547368  0.41085807     0.06600
H1504       H  0.93228335  0.72191395  0.42846813     0.07500
C1505       C  0.57901669  0.85372572  0.59894532    -0.22100
C1506       C  0.58290824  0.85061795  0.61239487     0.09800
C1507       C  0.59914825  0.84951459  0.61636592     0.10200
C1508       C  0.61124722  0.85197590  0.60673253    -0.17100
C1509       C  0.60737385  0.85567166  0.59329887    -0.27500
C1510       C  0.59104209  0.85610370  0.58928922     0.18600
C1511       C  0.56963417  0.84863948  0.62207824     0.12500
C1512       C  0.60364191  0.84619990  0.63077456    -0.11800
H1513       H  0.62377257  0.85164252  0.60975413     0.12800
C1514       C  0.58580180  0.85840352  0.57494421    -0.22700
H1515       H  0.56647258  0.85422962  0.59596580     0.08500
C1516       C  0.56166773  0.86604837  0.62709020     0.04800
C1517       C  0.54820677  0.86343291  0.63532191    -0.19900
C1518       C  0.54252327  0.84381691  0.63860726    -0.12200
C1519       C  0.55061715  0.82633314  0.63360475     0.13500
C1520       C  0.56422488  0.82903257  0.62551720    -0.22600
C1521       C  0.56734393  0.88733919  0.62369080    -0.05700
H1522       H  0.54200835  0.87679243  0.63916822     0.15000
C1523       C  0.54485293  0.80470896  0.63584788    -0.15900
H1524       H  0.57032528  0.81574735  0.62144860     0.09400
H1525       H  0.57885718  0.87281473  0.57377104     0.07200
H1526       H  0.57797150  0.84529481  0.57215976     0.08400
H1527       H  0.59596304  0.85856140  0.56780215     0.07500
H1528       H  0.59872440  0.83133836  0.63429162     0.02300
H1529       H  0.59861519  0.85874023  0.63698647     0.02800
H1530       H  0.61689698  0.84595693  0.63219173     0.06300
H1531       H  0.55984478  0.89924684  0.62858187     0.05300
H1532       H  0.56671963  0.88977434  0.61273003    -0.00500
H1533       H  0.57996618  0.88937211  0.62707841     0.01000
H1534       H  0.54297595  0.79710915  0.62604753     0.04700
H1535       H  0.53331336  0.80378554  0.64130160     0.06600
H1536       H  0.55409133  0.79604548  0.64152799     0.07500
C1537       C  0.74630871  0.80212098  0.53586934    -0.22100
C1538       C  0.74099578  0.78207315  0.53365922     0.09800
C1539       C  0.72470637  0.77698281  0.53574427     0.10200
C1540       C  0.71393588  0.79228654  0.53975075    -0.17100
C1541       C  0.71911667  0.81253002  0.54169106    -0.27500
C1542       C  0.73560990  0.81742356  0.54004367     0.18600
C1543       C  0.75265873  0.76651390  0.52917368     0.12500
C1544       C  0.71869249  0.75547064  0.53355563    -0.11800
H1545       H  0.70132521  0.78853790  0.54106084     0.12800
C1546       C  0.74251574  0.83826392  0.54306961    -0.22700
H1547       H  0.75892343  0.80578371  0.53445697     0.08500
C1548       C  0.75578657  0.76338604  0.51550115     0.04800
C1549       C  0.76592792  0.74730856  0.51165106    -0.19900
C1550       C  0.77295498  0.73429877  0.52118285    -0.12200
C1551       C  0.77040289  0.73813190  0.53494674     0.13500
C1552       C  0.76020336  0.75421253  0.53875510    -0.22600
C1553       C  0.74820770  0.77681716  0.50500562    -0.05700
H1554       H  0.76799622  0.74452076  0.50112006     0.15000
C1555       C  0.77873528  0.72587904  0.54567512    -0.15900
H1556       H  0.75787597  0.75704353  0.54924752     0.09400
H1557       H  0.74739553  0.84513845  0.53376975     0.07200
H1558       H  0.75244554  0.83666904  0.55042370     0.08400
H1559       H  0.73365854  0.84894751  0.54747521     0.07500
H1560       H  0.72509635  0.74478101  0.54034679     0.02300
H1561       H  0.72089208  0.75080953  0.52305172     0.02800
H1562       H  0.70558762  0.75414726  0.53555620     0.06300
H1563       H  0.75189253  0.77223285  0.49477209     0.05300
H1564       H  0.75193415  0.79296359  0.50658923    -0.00500
H1565       H  0.73489803  0.77575757  0.50564827     0.01000
H1566       H  0.79193069  0.72598272  0.54394336     0.04700
H1567       H  0.77648581  0.73234521  0.55576413     0.06600
H1568       H  0.77425884  0.70991797  0.54576855     0.07500
C1569       C  0.86083416  0.33306835  0.62139884    -0.22100
C1570       C  0.87567806  0.34079614  0.61711467     0.09800
C1571       C  0.87628389  0.35470953  0.60635276     0.10200
C1572       C  0.86195727  0.36039226  0.59995688    -0.17100
C1573       C  0.84707121  0.35235381  0.60402169    -0.27500
C1574       C  0.84646600  0.33872640  0.61502131     0.18600
C1575       C  0.89049566  0.33400931  0.62398128     0.12500
C1576       C  0.89203106  0.36365478  0.60170291    -0.11800
H1577       H  0.86240738  0.37092524  0.59159385     0.12800
C1578       C  0.83075678  0.33073183  0.62045244    -0.22700
H1579       H  0.86053170  0.32253988  0.62977128     0.08500
C1580       C  0.89515637  0.34232011  0.63638966     0.04800
C1581       C  0.90957432  0.33577699  0.64230222    -0.19900
C1582       C  0.91949774  0.32135323  0.63596925    -0.12200
C1583       C  0.91462107  0.31273915  0.62364599     0.13500
C1584       C  0.90011494  0.31915342  0.61783272    -0.22600
C1585       C  0.88509430  0.35839018  0.64321224    -0.05700
H1586       H  0.91333362  0.34233988  0.65174454     0.15000
C1587       C  0.92434400  0.29635407  0.61677776    -0.15900
H1588       H  0.89628836  0.31270884  0.60837172     0.09400
H1589       H  0.83254361  0.32179861  0.62978030     0.07200
H1590       H  0.82495426  0.32040215  0.61312727     0.08400
H1591       H  0.82260636  0.34372001  0.62277254     0.07500
H1592       H  0.90012440  0.35124440  0.59821911     0.02300
H1593       H  0.89788164  0.37198023  0.61006568     0.02800
H1594       H  0.89031596  0.37457921  0.59331617     0.06300
H1595       H  0.89063679  0.36354710  0.65273069     0.05300
H1596       H  0.87299519  0.35210978  0.64550815    -0.00500
H1597       H  0.88379403  0.37192259  0.63657912     0.01000
H1598       H  0.91809714  0.29036734  0.60777879     0.04700
H1599       H  0.92635233  0.28333431  0.62371604     0.06600
H1600       H  0.93607823  0.30258513  0.61346215     0.07500
C1601       C  0.77151690  0.54097262  0.52654713    -0.22100
C1602       C  0.78518435  0.52939214  0.52970565     0.09800
C1603       C  0.80064573  0.53736626  0.52716188     0.10200
C1604       C  0.80212211  0.55675281  0.52132610    -0.17100
C1605       C  0.78850286  0.56843430  0.51812175    -0.27500
C1606       C  0.77297623  0.56051660  0.52079739     0.18600
C1607       C  0.78318867  0.50852918  0.53514285     0.12500
C1608       C  0.81557633  0.52539765  0.53062584    -0.11800
H1609       H  0.81399827  0.56291499  0.51933699     0.12800
C1610       C  0.75796368  0.57216327  0.51712736    -0.22700
H1611       H  0.75969969  0.53457583  0.52846600     0.08500
C1612       C  0.78176123  0.50495533  0.54897356     0.04800
C1613       C  0.78145719  0.48472561  0.55369150    -0.19900
C1614       C  0.78238842  0.46809062  0.54485002    -0.12200
C1615       C  0.78360861  0.47175508  0.53094810     0.13500
C1616       C  0.78392789  0.49199074  0.52628164    -0.22600
C1617       C  0.78086596  0.52248400  0.55871145    -0.05700
H1618       H  0.78061083  0.48185277  0.56433408     0.15000
C1619       C  0.78550287  0.45455818  0.52103305    -0.15900
H1620       H  0.78520714  0.49499703  0.51568216     0.09400
H1621       H  0.74692341  0.56312450  0.51923047     0.07200
H1622       H  0.75810368  0.57587037  0.50630359     0.08400
H1623       H  0.75720361  0.58650537  0.52300323     0.07500
H1624       H  0.81573283  0.51075484  0.52500276     0.02300
H1625       H  0.81575678  0.52207089  0.54150020     0.02800
H1626       H  0.82670420  0.53399188  0.52810153     0.06300
H1627       H  0.77984671  0.51700517  0.56918179     0.05300
H1628       H  0.77017112  0.53206397  0.55645389    -0.00500
H1629       H  0.79187479  0.53204059  0.55790832     0.01000
H1630       H  0.77444207  0.44509946  0.52075103     0.04700
H1631       H  0.79596451  0.44488481  0.52382129     0.06600
H1632       H  0.78757839  0.46040386  0.51075509     0.07500
C1633       C  0.58333117  0.20089777  0.43371134    -0.22100
C1634       C  0.58343062  0.19272841  0.42077852     0.09800
C1635       C  0.59610909  0.17981878  0.41673705     0.10200
C1636       C  0.60837243  0.17507996  0.42583715    -0.17100
C1637       C  0.60827580  0.18310623  0.43882489    -0.27500
C1638       C  0.59556543  0.19615535  0.44286084     0.18600
C1639       C  0.56977214  0.19708765  0.41177372     0.12500
C1640       C  0.59657716  0.17092899  0.40286243    -0.11800
H1641       H  0.61811833  0.16507452  0.42280689     0.12800
C1642       C  0.59407121  0.20462142  0.45681554    -0.22700
H1643       H  0.57343674  0.21064590  0.43677408     0.08500
C1644       C  0.55581642  0.18481993  0.41195530     0.04800
C1645       C  0.54335266  0.18904115  0.40294254    -0.19900
C1646       C  0.54458787  0.20515812  0.39371225    -0.12200
C1647       C  0.55848275  0.21769486  0.39371432     0.13500
C1648       C  0.57096536  0.21338971  0.40272900    -0.22600
C1649       C  0.55417929  0.16717411  0.42156545    -0.05700
H1650       H  0.53265135  0.17953832  0.40297317     0.15000
C1651       C  0.56036478  0.23608418  0.38474877    -0.15900
H1652       H  0.58169363  0.22284889  0.40274253     0.09400
H1653       H  0.58239635  0.19974957  0.46118096     0.07200
H1654       H  0.59443119  0.22160894  0.45644860     0.08400
H1655       H  0.60366768  0.19929358  0.46364354     0.07500
H1656       H  0.59694642  0.18348647  0.39538942     0.02300
H1657       H  0.58569529  0.16143647  0.40111268     0.02800
H1658       H  0.60733056  0.16111275  0.40133641     0.06300
H1659       H  0.54252228  0.15906934  0.42031671     0.05300
H1660       H  0.55487054  0.17289524  0.43198946    -0.00500
H1661       H  0.56401175  0.15597288  0.41986569     0.01000
H1662       H  0.56237766  0.24994312  0.39095472     0.04700
H1663       H  0.54967799  0.23904202  0.37843954     0.06600
H1664       H  0.57092364  0.23386309  0.37811567     0.07500
C1665       C  0.65122343  0.99285721  0.51348846    -0.22100
C1666       C  0.66584258  0.00343231  0.51424628     0.09800
C1667       C  0.67952629  0.99374719  0.51964403     0.10200
C1668       C  0.67821676  0.97358515  0.52434551    -0.17100
C1669       C  0.66347387  0.96309150  0.52391605    -0.27500
C1670       C  0.64984227  0.97273713  0.51823237     0.18600
C1671       C  0.66641207  0.02476766  0.50942009     0.12500
C1672       C  0.69543911  0.00472340  0.52044623    -0.11800
H1673       H  0.68866270  0.96612138  0.52863035     0.12800
C1674       C  0.63400094  0.96174354  0.51664862    -0.22700
H1675       H  0.64084739  0.00045582  0.50918028     0.08500
C1676       C  0.66835742  0.02931212  0.49575574     0.04800
C1677       C  0.66808331  0.04980104  0.49158206    -0.19900
C1678       C  0.66608251  0.06576528  0.50080605    -0.12200
C1679       C  0.66409739  0.06115281  0.51452101     0.13500
C1680       C  0.66429631  0.04063135  0.51865181    -0.22600
C1681       C  0.67074506  0.01253236  0.48563297    -0.05700
H1682       H  0.66953184  0.05340958  0.48107982     0.15000
C1683       C  0.66102170  0.07762590  0.52474690    -0.15900
H1684       H  0.66261274  0.03687113  0.52910765     0.09400
H1685       H  0.62515918  0.97109645  0.51098726     0.07200
H1686       H  0.62863300  0.95848061  0.52654224     0.08400
H1687       H  0.63584040  0.94720238  0.51111370     0.07500
H1688       H  0.69422030  0.01860096  0.52676502     0.02300
H1689       H  0.69936184  0.00932951  0.51027989     0.02800
H1690       H  0.70495018  0.99487225  0.52485936     0.06300
H1691       H  0.67223613  0.01875854  0.47538202     0.05300
H1692       H  0.66015631  0.00216549  0.48562586    -0.00500
H1693       H  0.68168823  0.00358899  0.48816796     0.01000
H1694       H  0.65861858  0.07106056  0.53478816     0.04700
H1695       H  0.65037060  0.08682219  0.52177183     0.06600
H1696       H  0.67167168  0.08773480  0.52566378     0.07500
C1697       C  0.74894949  0.27226301  0.52727628    -0.22100
C1698       C  0.73243296  0.27474254  0.52514533     0.09800
C1699       C  0.72478189  0.29307519  0.52895504     0.10200
C1700       C  0.73386656  0.30854756  0.53503614    -0.17100
C1701       C  0.75040758  0.30605886  0.53739207    -0.27500
C1702       C  0.75815197  0.28783898  0.53313849     0.18600
C1703       C  0.72330667  0.25788905  0.51894290     0.12500
C1704       C  0.70702673  0.29619739  0.52668514    -0.11800
H1705       H  0.72795063  0.32250916  0.53821965     0.12800
C1706       C  0.77607902  0.28450578  0.53398499    -0.22700
H1707       H  0.75474445  0.25820050  0.52410814     0.08500
C1708       C  0.72184654  0.25621732  0.50497187     0.04800
C1709       C  0.71251266  0.24036905  0.49959490    -0.19900
C1710       C  0.70461310  0.22622441  0.50788705    -0.12200
C1711       C  0.70595044  0.22814314  0.52194623     0.13500
C1712       C  0.71553699  0.24379522  0.52726220    -0.22600
C1713       C  0.73006836  0.27120446  0.49578587    -0.05700
H1714       H  0.71144460  0.23892846  0.48884353     0.15000
C1715       C  0.69685852  0.21487861  0.53169923    -0.15900
H1716       H  0.71657119  0.24542906  0.53801035     0.09400
H1717       H  0.78075171  0.28021301  0.52397821     0.07200
H1718       H  0.77867604  0.27186214  0.54108285     0.08400
H1719       H  0.78282446  0.29830496  0.53707929     0.07500
H1720       H  0.70010224  0.28431898  0.53215716     0.02300
H1721       H  0.70428112  0.29505539  0.51586006     0.02800
H1722       H  0.70296752  0.31145483  0.53023745     0.06300
H1723       H  0.72763286  0.26770639  0.48511892     0.05300
H1724       H  0.74327885  0.27061436  0.49738974    -0.00500
H1725       H  0.72571103  0.28695246  0.49785567     0.01000
H1726       H  0.70550346  0.20580983  0.53774276     0.04700
H1727       H  0.68825526  0.20429928  0.52687269     0.06600
H1728       H  0.68972419  0.22476481  0.53850698     0.07500
loop_ 
_geom_bond_atom_site_label_1 
_geom_bond_atom_site_label_2 
_geom_bond_distance 
_geom_bond_site_symmetry_2 
_ccdc_geom_bond_type 
N1            N2   1.322       .  A
N1            C5   1.345       .  A
N1           Cu9   2.067       .  S
N2            C3   1.344       .  A
N2           Cu8   2.073       .  S
C3            C4   1.381       .  A
C3            H6   1.082       .  S
C4            C5   1.381       .  A
C4         C1637   1.473       .  S
C5            H7   1.082       .  S
Cu8          N11   2.073       .  S
Cu9          N19   2.066       .  S
Cu10         N12   2.065       .  S
Cu10         N18   2.065       .  S
N11          N12   1.322       .  A
N11          C15   1.345       .  A
N12          C13   1.343       .  A
C13          C14   1.381       .  A
C13          H16   1.081       .  S
C14          C15   1.383       .  A
C14        C1678   1.475       .  S
C15          H17   1.082       .  S
N18          N19   1.321       .  A
N18          C22   1.344       .  A
N19          C20   1.343       .  A
C20          C21   1.382       .  A
C20          H23   1.082       .  S
C21          C22   1.383       .  A
C21        C1710   1.475       .  S
C22          H24   1.082       .  S
N25          N26   1.321       .  A
N25          C29   1.342       .  A
N25         Cu33   2.062       .  S
N26          C27   1.345       .  A
N26         Cu32   2.076       .  S
C27          C28   1.386       .  A
C27          H30   1.082       .  S
C28          C29   1.382       .  A
C28        C1573   1.479       .  S
C29          H31   1.081       .  S
Cu32         N35   2.076       .  S
Cu33         N43   2.062       .  S
Cu34         N36   2.065       .  S
Cu34         N42   2.064       .  S
N35          N36   1.322       .  A
N35          C39   1.345       .  A
N36          C37   1.343       .  A
C37          C38   1.382       .  A
C37          H40   1.081       .  S
C38          C39   1.383       .  A
C38        C1614   1.476       .  S
C39          H41   1.082       .  S
N42          N43   1.321       .  A
N42          C46   1.343       .  A
N43          C44   1.343       .  A
C44          C45   1.383       .  A
C44          H47   1.082       .  S
C45          C46   1.383       .  A
C45        C1701   1.476       .  S
C46          H48   1.082       .  S
N49          N50   1.321       .  A
N49          C53   1.345       .  A
N49         Cu57   2.069       .  S
N50          C51   1.342       .  A
N50         Cu56   2.060       .  S
C51          C52   1.381       .  A
C51          H54   1.082       .  S
C52          C53   1.382       .  A
C52        C1509   1.472       .  S
C53          H55   1.082       .  S
Cu56         N59   2.060       .  S
Cu57         N67   2.069       .  S
Cu58         N60   2.070       .  S
Cu58         N66   2.071       .  S
N59          N60   1.321       .  A
N59          C63   1.342       .  A
N60          C61   1.345       .  A
C61          C62   1.385       .  A
C61          H64   1.082       .  S
C62          C63   1.382       .  A
C62        C1669   1.476       .  S
C63          H65   1.081       .  S
N66          N67   1.323       .  A
N66          C70   1.344       .  A
N67          C68   1.344       .  A
C68          C69   1.382       .  A
C68          H71   1.082       .  S
C69          C70   1.382       .  A
C69        C1541   1.475       .  S
C70          H72   1.082       .  S
N73          N74   1.323       .  A
N73          C77   1.344       .  A
N73         Cu81   2.073       .  S
N74          C75   1.346       .  A
N74         Cu80   2.077       .  S
C75          C76   1.383       .  A
C75          H78   1.082       .  S
C76          C77   1.382       .  A
C76        C1477   1.475       .  S
C77          H79   1.082       .  S
Cu80         N83   2.076       .  S
Cu81         N91   2.072       .  S
Cu82         N84   2.060       .  S
Cu82         N90   2.060       .  S
N83          N84   1.321       .  A
N83          C87   1.344       .  A
N84          C85   1.344       .  A
C85          C86   1.382       .  A
C85          H88   1.081       .  S
C86          C87   1.385       .  A
C86        C1605   1.476       .  S
C87          H89   1.082       .  S
N90          N91   1.321       .  A
N90          C94   1.342       .  A
N91          C92   1.345       .  A
C92          C93   1.386       .  A
C92          H95   1.082       .  S
C93          C94   1.383       .  A
C93        C1550   1.478       .  S
C94          H96   1.080       .  S
N97          N98   1.322       .  A
N97         C101   1.345       .  A
N97        Cu105   2.086       .  S
N98          C99   1.345       .  A
N98        Cu104   2.075       .  S
C99         C100   1.388       .  A
C99         H102   1.078       .  S
C100        C101   1.389       .  A
C100       C1381   1.492       .  S
C101        H103   1.082       .  S
Cu104       N107   2.074       .  S
Cu105       N115   2.085       .  S
Cu106       N108   2.060       .  S
Cu106       N114   2.059       .  S
N107        N108   1.321       .  A
N107        C111   1.345       .  A
N108        C109   1.343       .  A
C109        C110   1.383       .  A
C109        H112   1.082       .  S
C110        C111   1.387       .  A
C110       C1413   1.481       .  S
C111        H113   1.082       .  S
N114        N115   1.322       .  A
N114        C118   1.342       .  A
N115        C116   1.347       .  A
C116        C117   1.386       .  A
C116        H119   1.082       .  S
C117        C118   1.380       .  A
C117       C1454   1.477       .  S
C118        H120   1.082       .  S
N121        N122   1.323       .  A
N121        C125   1.346       .  A
N121       Cu129   2.075       .  S
N122        C123   1.344       .  A
N122       Cu128   2.074       .  S
C123        C124   1.383       .  A
C123        H126   1.082       .  S
C124        C125   1.384       .  A
C124       C1326   1.479       .  S
C125        H127   1.082       .  S
Cu128       N131   2.074       .  S
Cu129       N139   2.075       .  S
Cu130       N132   2.068       .  S
Cu130       N138   2.068       .  S
N131        N132   1.321       .  A
N131        C135   1.345       .  A
N132        C133   1.345       .  A
C133        C134   1.383       .  A
C133        H136   1.082       .  S
C134        C135   1.385       .  A
C134       C1358   1.479       .  S
C135        H137   1.082       .  S
N138        N139   1.322       .  A
N138        C142   1.343       .  A
N139        C140   1.345       .  A
C140        C141   1.384       .  A
C140        H143   1.082       .  S
C141        C142   1.382       .  A
C141       C1445   1.477       .  S
C142        H144   1.082       .  S
N145        N146   1.321       .  A
N145        C149   1.345       .  A
N145       Cu153   2.068       .  S
N146        C147   1.341       .  A
N146       Cu152   2.061       .  S
C147        C148   1.381       .  A
C147        H150   1.082       .  S
C148        C149   1.384       .  A
C148       C1262   1.473       .  S
C149        H151   1.082       .  S
Cu152       N155   2.062       .  S
Cu153       N163   2.068       .  S
Cu154       N156   2.073       .  S
Cu154       N162   2.074       .  S
N155        N156   1.321       .  A
N155        C159   1.343       .  A
N156        C157   1.345       .  A
C157        C158   1.385       .  A
C157        H160   1.082       .  S
C158        C159   1.383       .  A
C158       C1422   1.478       .  S
C159        H161   1.082       .  S
N162        N163   1.323       .  A
N162        C166   1.345       .  A
N163        C164   1.343       .  A
C164        C165   1.382       .  A
C164        H167   1.082       .  S
C165        C166   1.383       .  A
C165       C1285   1.475       .  S
C166        H168   1.082       .  S
N169        N170   1.321       .  A
N169        C173   1.342       .  A
N169       Cu177   2.060       .  S
N170        C171   1.345       .  A
N170       Cu176   2.073       .  S
C171        C172   1.384       .  A
C171        H174   1.082       .  S
C172        C173   1.381       .  A
C172       C1230   1.475       .  S
C173        H175   1.081       .  S
Cu176       N179   2.074       .  S
Cu177       N187   2.060       .  S
Cu178       N180   2.073       .  S
Cu178       N186   2.072       .  S
N179        N180   1.323       .  A
N179        C183   1.345       .  A
N180        C181   1.344       .  A
C181        C182   1.383       .  A
C181        H184   1.082       .  S
C182        C183   1.384       .  A
C182       C1349   1.478       .  S
C183        H185   1.082       .  S
N186        N187   1.321       .  A
N186        C190   1.345       .  A
N187        C188   1.341       .  A
C188        C189   1.382       .  A
C188        H191   1.082       .  S
C189        C190   1.385       .  A
C189       C1294   1.476       .  S
C190        H192   1.081       .  S
N193        N194   1.321       .  A
N193        C197   1.345       .  A
N193       Cu201   2.072       .  S
N194        C195   1.345       .  A
N194       Cu200   2.070       .  S
C195        C196   1.384       .  A
C195        H198   1.082       .  S
C196        C197   1.384       .  A
C196       C1486   1.479       .  S
C197        H199   1.082       .  S
Cu200       N203   2.070   1_655  S
Cu201       N211   2.073       .  S
Cu202       N204   2.079       .  S
Cu202       N210   2.080   1_455  S
N203        N204   1.322       .  A
N203        C207   1.343       .  A
N204        C205   1.348       .  A
C205        C206   1.385       .  A
C205        H208   1.082       .  S
C206        C207   1.382       .  A
C206       C1317   1.479       .  S
C207        H209   1.082       .  S
N210        N211   1.323       .  A
N210        C214   1.345       .  A
N211        C212   1.345       .  A
C212        C213   1.385       .  A
C212        H215   1.082       .  S
C213        C214   1.385       .  A
C213       C1189   1.484       .  S
C214        H216   1.082   1_655  S
N217        N218   1.322   1_455  A
N217        C221   1.347       .  A
N217       Cu225   2.085   1_455  S
N218        C219   1.342   1_655  A
N218       Cu224   2.059       .  S
C219        C220   1.379       .  A
C219        H222   1.082   1_455  S
C220        C221   1.387       .  A
C220       C1134   1.477       .  S
C221        H223   1.081       .  S
Cu224       N227   2.059       .  S
Cu225       N235   2.086       .  S
Cu226       N228   2.068       .  S
Cu226       N234   2.069       .  S
N227        N228   1.320       .  A
N227        C231   1.341       .  A
N228        C229   1.345       .  A
C229        C230   1.385       .  A
C229        H232   1.082       .  S
C230        C231   1.383       .  A
C230       C1157   1.476       .  S
C231        H233   1.082       .  S
N234        N235   1.323       .  A
N234        C238   1.343       .  A
N235        C236   1.347       .  A
C236        C237   1.388       .  A
C236        H239   1.082   1_655  S
C237        C238   1.383       .  A
C237       C1198   1.484       .  S
C238        H240   1.082       .  S
N241        N242   1.321       .  A
N241        C245   1.347       .  A
N241       Cu249   2.079       .  S
N242        C243   1.341       .  A
N242       Cu248   2.055       .  S
C243        C244   1.378       .  A
C243        H246   1.082       .  S
C244        C245   1.387       .  A
C244       C1646   1.474       .  S
C245        H247   1.082       .  S
Cu248       N251   2.055       .  S
Cu249       N259   2.080       .  S
Cu250       N252   2.066       .  S
Cu250       N258   2.067       .  S
N251        N252   1.320       .  A
N251        C255   1.341       .  A
N252        C253   1.345       .  A
C253        C254   1.385       .  A
C253        H256   1.082       .  S
C254        C255   1.381       .  A
C254       C1253   1.475       .  S
C255        H257   1.082       .  S
N258        N259   1.324       .  A
N258        C262   1.343       .  A
N259        C260   1.344       .  A
C260        C261   1.385       .  A
C260        H263   1.082       .  S
C261        C262   1.382       .  A
C261       C1093   1.479       .  S
C262        H264   1.082       .  S
N265        N266   1.321       .  A
N265        C269   1.345       .  A
N265       Cu273   2.065       .  S
N266        C267   1.343       .  A
N266       Cu272   2.072       .  S
C267        C268   1.385       .  A
C267        H270   1.082       .  S
C268        C269   1.385       .  A
C268       C1038   1.480       .  S
C269        H271   1.082       .  S
Cu272       N275   2.072       .  S
Cu273       N283   2.065       .  S
Cu274       N276   2.077       .  S
Cu274       N282   2.077       .  S
N275        N276   1.322       .  A
N275        C279   1.343       .  A
N276        C277   1.347       .  A
C277        C278   1.386       .  A
C277        H280   1.081       .  S
C278        C279   1.383       .  A
C278       C1061   1.479       .  S
C279        H281   1.082       .  S
N282        N283   1.323       .  A
N282        C286   1.344       .  A
N283        C284   1.343       .  A
C284        C285   1.382       .  A
C284        H287   1.082       .  S
C285        C286   1.384       .  A
C285       C1102   1.477       .  S
C286        H288   1.082       .  S
N289        N290   1.321       .  A
N289        C293   1.343       .  A
N289       Cu297   2.066       .  S
N290        C291   1.344       .  A
N290       Cu296   2.069       .  S
C291        C292   1.385       .  A
C291        H294   1.080       .  S
C292        C293   1.383       .  A
C292       C1166   1.479       .  S
C293        H295   1.082       .  S
Cu296       N299   2.070       .  S
Cu297       N307   2.066       .  S
Cu298       N300   2.064       .  S
Cu298       N306   2.064       .  S
N299        N300   1.321       .  A
N299        C303   1.344       .  A
N300        C301   1.343       .  A
C301        C302   1.384       .  A
C301        H304   1.082       .  S
C302        C303   1.385       .  A
C302        C965   1.479       .  S
C303        H305   1.082       .  S
N306        N307   1.321       .  A
N306        C310   1.344       .  A
N307        C308   1.342       .  A
C308        C309   1.384       .  A
C308        H311   1.082       .  S
C309        C310   1.384       .  A
C309       C1006   1.478       .  S
C310        H312   1.082       .  S
N313        N314   1.322       .  A
N313        C317   1.342       .  A
N313       Cu321   2.062       .  S
N314        C315   1.344       .  A
N314       Cu320   2.070       .  S
C315        C316   1.383       .  A
C315        H318   1.082       .  S
C316        C317   1.381       .  A
C316        C901   1.474       .  S
C317        H319   1.082       .  S
Cu320       N323   2.069       .  S
Cu321       N331   2.062       .  S
Cu322       N324   2.066       .  S
Cu322       N330   2.065       .  S
N323        N324   1.321       .  A
N323        C327   1.345       .  A
N324        C325   1.342   1_556  A
C325        C326   1.383   1_554  A
C325        H328   1.082       .  S
C326        C327   1.386       .  A
C326        C933   1.480   1_556  S
C327        H329   1.080       .  S
N330        N331   1.320       .  A
N330        C334   1.342   1_556  A
N331        C332   1.343       .  A
C332        C333   1.385   1_556  A
C332        H335   1.082       .  S
C333        C334   1.385       .  A
C333        C997   1.479       .  S
C334        H336   1.080       .  S
N337        N338   1.322       .  A
N337        C341   1.344       .  A
N337       Cu345   2.070       .  S
N338        C339   1.347       .  A
N338       Cu344   2.083       .  S
C339        C340   1.388       .  A
C339        H342   1.081       .  S
C340        C341   1.383       .  A
C340       C1070   1.484       .  S
C341        H343   1.082       .  S
Cu344       N347   2.083       .  S
Cu345       N355   2.069       .  S
Cu346       N348   2.074       .  S
Cu346       N354   2.074       .  S
N347        N348   1.323       .  A
N347        C351   1.346       .  A
N348        C349   1.344       .  A
C349        C350   1.383       .  A
C349        H352   1.082       .  S
C350        C351   1.386       .  A
C350        C942   1.482       .  S
C351        H353   1.082       .  S
N354        N355   1.322       .  A
N354        C358   1.347       .  A
N355        C356   1.343       .  A
C356        C357   1.382       .  A
C356        H359   1.082       .  S
C357        C358   1.384       .  A
C357        C869   1.476       .  S
C358        H360   1.082       .  S
N361        N362   1.323       .  A
N361        C365   1.342       .  A
N361       Cu369   2.068       .  S
N362        C363   1.344       .  A
N362       Cu368   2.070       .  S
C363        C364   1.383       .  A
C363        H366   1.082       .  S
C364        C365   1.382       .  A
C364        C837   1.475       .  S
C365        H367   1.082       .  S
Cu368       N371   2.069       .  S
Cu369       N379   2.067       .  S
Cu370       N372   2.067       .  S
Cu370       N378   2.067       .  S
N371        N372   1.321       .  A
N371        C375   1.345       .  A
N372        C373   1.342   1_556  A
C373        C374   1.385   1_554  A
C373        H376   1.082       .  S
C374        C375   1.387       .  A
C374        C974   1.482   1_556  S
C375        H377   1.082       .  S
N378        N379   1.321       .  A
N378        C382   1.343   1_556  A
N379        C380   1.345       .  A
C380        C381   1.385   1_556  A
C380        H383   1.082       .  S
C381        C382   1.383       .  A
C381        C878   1.478       .  S
C382        H384   1.082       .  S
N385        N386   1.322       .  A
N385        C389   1.346       .  A
N385       Cu393   2.073       .  S
N386        C387   1.340       .  A
N386       Cu392   2.053       .  S
C387        C388   1.377       .  A
C387        H390   1.082       .  S
C388        C389   1.385       .  A
C388        C846   1.471       .  S
C389        H391   1.082       .  S
Cu392       N395   2.053   1_655  S
Cu393       N403   2.075       .  S
Cu394       N396   2.076       .  S
Cu394       N402   2.077   1_455  S
N395        N396   1.320       .  A
N395        C399   1.341       .  A
N396        C397   1.346       .  A
C397        C398   1.387       .  A
C397        H400   1.082       .  S
C398        C399   1.382       .  A
C398        C805   1.479       .  S
C399        H401   1.082       .  S
N402        N403   1.324       .  A
N402        C406   1.344   1_655  A
N403        C404   1.345       .  A
C404        C405   1.384       .  A
C404        H407   1.082       .  S
C405        C406   1.383   1_655  A
C405        C773   1.479       .  S
C406        H408   1.082       .  S
N409        N410   1.321       .  A
N409        C413   1.345       .  A
N409       Cu417   2.071       .  S
N410        C411   1.342       .  A
N410       Cu416   2.060   1_455  S
C411        C412   1.380       .  A
C411        H414   1.082       .  S
C412        C413   1.385       .  A
C412       C1221   1.475       .  S
C413        H415   1.082       .  S
Cu416       N419   2.060       .  S
Cu417       N427   2.072   1_455  S
Cu418       N420   2.078       .  S
Cu418       N426   2.079       .  S
N419        N420   1.321       .  A
N419        C423   1.342       .  A
N420        C421   1.346       .  A
C421        C422   1.386       .  A
C421        H424   1.082       .  S
C422        C423   1.381       .  A
C422       C1582   1.477       .  S
C423        H425   1.081       .  S
N426        N427   1.323       .  A
N426        C430   1.344       .  A
N427        C428   1.345   1_655  A
C428        C429   1.382   1_455  A
C428        H431   1.082       .  S
C429        C430   1.384       .  A
C429        C782   1.479       .  S
C430        H432   1.082       .  S
N433        N434   1.322       .  A
N433        C437   1.345       .  A
N433       Cu441   2.071       .  S
N434        C435   1.343       .  A
N434       Cu440   2.068       .  S
C435        C436   1.382       .  A
C435        H438   1.082       .  S
C436        C437   1.383       .  A
C436       C1125   1.475       .  S
C437        H439   1.082       .  S
Cu440       N443   2.068       .  S
Cu441       N451   2.071       .  S
Cu442       N444   2.069       .  S
Cu442       N450   2.070       .  S
N443        N444   1.321       .  A
N443        C447   1.343       .  A
N444        C445   1.344       .  A
C445        C446   1.384       .  A
C445        H448   1.082       .  S
C446        C447   1.384       .  A
C446        C709   1.479       .  S
C447        H449   1.082       .  S
N450        N451   1.323       .  A
N450        C454   1.344       .  A
N451        C452   1.344       .  A
C452        C453   1.383       .  A
C452        H455   1.082       .  S
C453        C454   1.381       .  A
C453        C750   1.475       .  S
C454        H456   1.082       .  S
N457        N458   1.321       .  A
N457        C461   1.346       .  A
N457       Cu465   2.072       .  S
N458        C459   1.345       .  A
N458       Cu464   2.074       .  S
C459        C460   1.385       .  A
C459        H462   1.082       .  S
C460        C461   1.385       .  A
C460        C645   1.482       .  S
C461        H463   1.081       .  S
Cu464       N467   2.075       .  S
Cu465       N475   2.072       .  S
Cu466       N468   2.081       .  S
Cu466       N474   2.081       .  S
N467        N468   1.323       .  A
N467        C471   1.344       .  A
N468        C469   1.346       .  A
C469        C470   1.385       .  A
C469        H472   1.082       .  S
C470        C471   1.382       .  A
C470        C677   1.479       .  S
C471        H473   1.082       .  S
N474        N475   1.322       .  A
N474        C478   1.348       .  A
N475        C476   1.342       .  A
C476        C477   1.383       .  A
C476        H479   1.082       .  S
C477        C478   1.386       .  A
C477        C741   1.482       .  S
C478        H480   1.082       .  S
N481        N482   1.321       .  A
N481        C485   1.343       .  A
N481       Cu489   2.063       .  S
N482        C483   1.346       .  A
N482       Cu488   2.076       .  S
C483        C484   1.384       .  A
C483        H486   1.082       .  S
C484        C485   1.381       .  A
C484       C1029   1.476       .  S
C485        H487   1.082       .  S
Cu488       N491   2.077       .  S
Cu489       N499   2.063       .  S
Cu490       N492   2.080       .  S
Cu490       N498   2.080       .  S
N491        N492   1.323       .  A
N491        C495   1.345       .  A
N492        C493   1.346       .  A
C493        C494   1.384       .  A
C493        H496   1.082       .  S
C494        C495   1.383       .  A
C494        C686   1.480       .  S
C495        H497   1.082       .  S
N498        N499   1.322       .  A
N498        C502   1.346       .  A
N499        C500   1.343       .  A
C500        C501   1.381       .  A
C500        H503   1.081       .  S
C501        C502   1.385       .  A
C501        C613   1.478       .  S
C502        H504   1.082       .  S
N505        N506   1.321       .  A
N505        C509   1.344       .  A
N505       Cu513   2.069       .  S
N506        C507   1.345       .  A
N506       Cu512   2.070       .  S
C507        C508   1.384       .  A
C507        H510   1.082       .  S
C508        C509   1.385       .  A
C508        C814   1.480       .  S
C509        H511   1.082       .  S
Cu512       N515   2.070       .  S
Cu513       N523   2.069       .  S
Cu514       N516   2.073       .  S
Cu514       N522   2.072       .  S
N515        N516   1.322       .  A
N515        C519   1.343       .  A
N516        C517   1.345   1_556  A
C517        C518   1.385   1_554  A
C517        H520   1.082       .  S
C518        C519   1.384       .  A
C518        C718   1.481   1_556  S
C519        H521   1.082       .  S
N522        N523   1.322       .  A
N522        C526   1.345       .  A
N523        C524   1.343       .  A
C524        C525   1.383       .  A
C524        H527   1.082       .  S
C525        C526   1.384       .  A
C525        C622   1.479   1_556  S
C526        H528   1.082   1_556  S
N529        N530   1.321       .  A
N529        C533   1.345       .  A
N529       Cu537   2.075       .  S
N530        C531   1.345       .  A
N530       Cu536   2.071       .  S
C531        C532   1.386       .  A
C531        H534   1.082       .  S
C532        C533   1.387       .  A
C532        C654   1.486       .  S
C533        H535   1.080       .  S
Cu536       N539   2.071       .  S
Cu537       N547   2.074       .  S
Cu538       N540   2.066       .  S
Cu538       N546   2.066       .  S
N539        N540   1.322       .  A
N539        C543   1.342       .  A
N540        C541   1.345       .  A
C541        C542   1.383       .  A
C541        H544   1.082       .  S
C542        C543   1.383       .  A
C542        C910   1.475       .  S
C543        H545   1.082       .  S
N546        N547   1.322       .  A
N546        C550   1.344       .  A
N547        C548   1.344       .  A
C548        C549   1.383       .  A
C548        H551   1.082       .  S
C549        C550   1.383       .  A
C549        C581   1.476       .  S
C550        H552   1.082       .  S
N553        N554   1.321       .  A
N553        C557   1.348       .  A
N553       Cu561   2.081       .  S
N554        C555   1.342       .  A
N554       Cu560   2.063       .  S
C555        C556   1.381       .  A
C555        H558   1.082       .  S
C556        C557   1.387       .  A
C556       C1390   1.478       .  S
C557        H559   1.082       .  S
Cu560       N563   2.063       .  S
Cu561       N571   2.082       .  S
Cu562       N564   2.067       .  S
Cu562       N570   2.068       .  S
N563        N564   1.321       .  A
N563        C567   1.341       .  A
N564        C565   1.345       .  A
C565        C566   1.384       .  A
C565        H568   1.082       .  S
C566        C567   1.381       .  A
C566       C1518   1.474       .  S
C567        H569   1.082       .  S
N570        N571   1.324       .  A
N570        C574   1.344       .  A
N571        C572   1.344       .  A
C572        C573   1.384       .  A
C572        H575   1.082       .  S
C573        C574   1.382       .  A
C573        C590   1.477       .  S
C574        H576   1.082       .  S
C577        C578   1.400       .  A
C577        C582   1.402       .  A
C577        H587   1.085       .  S
C578        C579   1.409       .  A
C578        C583   1.477       .  S
C579        C580   1.401       .  A
C579        C584   1.507       .  S
C580        C581   1.404       .  A
C580        H585   1.084       .  S
C581        C582   1.417       .  A
C582        C586   1.508       .  S
C583        C588   1.409       .  A
C583        C592   1.400       .  A
C584        H600   1.110       .  S
C584        H601   1.110       .  S
C584        H602   1.111       .  S
C586        H597   1.110       .  S
C586        H598   1.111       .  S
C586        H599   1.106       .  S
C588        C589   1.402       .  A
C588        C593   1.506       .  S
C589        C590   1.405       .  A
C589        H594   1.084       .  S
C590        C591   1.416       .  A
C591        C592   1.401       .  A
C591        C595   1.507       .  S
C592        H596   1.085       .  S
C593        H603   1.111       .  S
C593        H604   1.110       .  S
C593        H605   1.110       .  S
C595        H606   1.111       .  S
C595        H607   1.107       .  S
C595        H608   1.110       .  S
C609        C610   1.400       .  A
C609        C614   1.403       .  A
C609        H619   1.084       .  S
C610        C611   1.410       .  A
C610        C615   1.477       .  S
C611        C612   1.403       .  A
C611        C616   1.507       .  S
C612        C613   1.403       .  A
C612        H617   1.084       .  S
C613        C614   1.416       .  A
C614        C618   1.507       .  S
C615        C620   1.410       .  A
C615        C624   1.399   1_554  A
C616        H632   1.110       .  S
C616        H633   1.109       .  S
C616        H634   1.111       .  S
C618        H629   1.107       .  S
C618        H630   1.111       .  S
C618        H631   1.110       .  S
C620        C621   1.404       .  A
C620        C625   1.506       .  S
C621        C622   1.406       .  A
C621        H626   1.084       .  S
C622        C623   1.417   1_554  A
C623        C624   1.400       .  A
C623        C627   1.508       .  S
C624        H628   1.085       .  S
C625        H635   1.111       .  S
C625        H636   1.110       .  S
C625        H637   1.109       .  S
C627        H638   1.111       .  S
C627        H639   1.106       .  S
C627        H640   1.110       .  S
C641        C642   1.401       .  A
C641        C646   1.405       .  A
C641        H651   1.084       .  S
C642        C643   1.410       .  A
C642        C647   1.482       .  S
C643        C644   1.404       .  A
C643        C648   1.506       .  S
C644        C645   1.404       .  A
C644        H649   1.084       .  S
C645        C646   1.416       .  A
C646        C650   1.507       .  S
C647        C652   1.410       .  A
C647        C656   1.400       .  A
C648        H664   1.110       .  S
C648        H665   1.110       .  S
C648        H666   1.111       .  S
C650        H661   1.111       .  S
C650        H662   1.108       .  S
C650        H663   1.110       .  S
C652        C653   1.403       .  A
C652        C657   1.507       .  S
C653        C654   1.406       .  A
C653        H658   1.084       .  S
C654        C655   1.418       .  A
C655        C656   1.406       .  A
C655        C659   1.507       .  S
C656        H660   1.084       .  S
C657        H667   1.111       .  S
C657        H668   1.110       .  S
C657        H669   1.110       .  S
C659        H670   1.111       .  S
C659        H671   1.110       .  S
C659        H672   1.107       .  S
C673        C674   1.402       .  A
C673        C678   1.404       .  A
C673        H683   1.084   1_565  S
C674        C675   1.410       .  A
C674        C679   1.482   1_566  S
C675        C676   1.403       .  A
C675        C680   1.506   1_556  S
C676        C677   1.404       .  A
C676        H681   1.084       .  S
C677        C678   1.416       .  A
C678        C682   1.507       .  S
C679        C684   1.411   1_554  A
C679        C688   1.401       .  A
C680        H696   1.110       .  S
C680        H697   1.110   1_564  S
C680        H698   1.111       .  S
C682        H693   1.111       .  S
C682        H694   1.110       .  S
C682        H695   1.107       .  S
C684        C685   1.404   1_556  A
C684        C689   1.506       .  S
C685        C686   1.404       .  A
C685        H690   1.084   1_554  S
C686        C687   1.417       .  A
C687        C688   1.403       .  A
C687        C691   1.508       .  S
C688        H692   1.085       .  S
C689        H699   1.111       .  S
C689        H700   1.110       .  S
C689        H701   1.110       .  S
C691        H702   1.111       .  S
C691        H703   1.106       .  S
C691        H704   1.110       .  S
C705        C706   1.399       .  A
C705        C710   1.401       .  A
C705        H715   1.085       .  S
C706        C707   1.409       .  A
C706        C711   1.476       .  S
C707        C708   1.403       .  A
C707        C712   1.506   1_554  S
C708        C709   1.406       .  A
C708        H713   1.084       .  S
C709        C710   1.418       .  A
C710        C714   1.508       .  S
C711        C716   1.408       .  A
C711        C720   1.399       .  A
C712        H728   1.110       .  S
C712        H729   1.110       .  S
C712        H730   1.111       .  S
C714        H725   1.111       .  S
C714        H726   1.110       .  S
C714        H727   1.106       .  S
C716        C717   1.403       .  A
C716        C721   1.507       .  S
C717        C718   1.406       .  A
C717        H722   1.084       .  S
C718        C719   1.419       .  A
C719        C720   1.402       .  A
C719        C723   1.508       .  S
C720        H724   1.085       .  S
C721        H731   1.111       .  S
C721        H732   1.110       .  S
C721        H733   1.110       .  S
C723        H734   1.111       .  S
C723        H735   1.105       .  S
C723        H736   1.110   1_554  S
C737        C738   1.398       .  A
C737        C742   1.400       .  A
C737        H747   1.085       .  S
C738        C739   1.410       .  A
C738        C743   1.478       .  S
C739        C740   1.405   1_554  A
C739        C744   1.506       .  S
C740        C741   1.406       .  A
C740        H745   1.084       .  S
C741        C742   1.419   1_556  A
C742        C746   1.508       .  S
C743        C748   1.410       .  A
C743        C752   1.399       .  A
C744        H760   1.110       .  S
C744        H761   1.109   1_554  S
C744        H762   1.111       .  S
C746        H757   1.110       .  S
C746        H758   1.111       .  S
C746        H759   1.106       .  S
C748        C749   1.403       .  A
C748        C753   1.507   1_554  S
C749        C750   1.404       .  A
C749        H754   1.084       .  S
C750        C751   1.417       .  A
C751        C752   1.401       .  A
C751        C755   1.508       .  S
C752        H756   1.085       .  S
C753        H763   1.111       .  S
C753        H764   1.110       .  S
C753        H765   1.109       .  S
C755        H766   1.111       .  S
C755        H767   1.106       .  S
C755        H768   1.110       .  S
C769        C770   1.399   1_455  A
C769        C774   1.403       .  A
C769        H779   1.085       .  S
C770        C771   1.409       .  A
C770        C775   1.478       .  S
C771        C772   1.403       .  A
C771        C776   1.507       .  S
C772        C773   1.405       .  A
C772        H777   1.084       .  S
C773        C774   1.418   1_655  A
C774        C778   1.508       .  S
C775        C780   1.409   1_655  A
C775        C784   1.399       .  A
C776        H792   1.110       .  S
C776        H793   1.110       .  S
C776        H794   1.111       .  S
C778        H789   1.110       .  S
C778        H790   1.111       .  S
C778        H791   1.106       .  S
C780        C781   1.404       .  A
C780        C785   1.506       .  S
C781        C782   1.406   1_455  A
C781        H786   1.084       .  S
C782        C783   1.417       .  A
C783        C784   1.401       .  A
C783        C787   1.508       .  S
C784        H788   1.085       .  S
C785        H795   1.111       .  S
C785        H796   1.110       .  S
C785        H797   1.110       .  S
C787        H798   1.111       .  S
C787        H799   1.106       .  S
C787        H800   1.110       .  S
C801        C802   1.399       .  A
C801        C806   1.401       .  A
C801        H811   1.085       .  S
C802        C803   1.410       .  A
C802        C807   1.478       .  S
C803        C804   1.403       .  A
C803        C808   1.506       .  S
C804        C805   1.404       .  A
C804        H809   1.084       .  S
C805        C806   1.418       .  A
C806        C810   1.508       .  S
C807        C812   1.409       .  A
C807        C816   1.399       .  A
C808        H824   1.110       .  S
C808        H825   1.110       .  S
C808        H826   1.111       .  S
C810        H821   1.110       .  S
C810        H822   1.111       .  S
C810        H823   1.106       .  S
C812        C813   1.403       .  A
C812        C817   1.507       .  S
C813        C814   1.405       .  A
C813        H818   1.084       .  S
C814        C815   1.418       .  A
C815        C816   1.402       .  A
C815        C819   1.508       .  S
C816        H820   1.085       .  S
C817        H827   1.111       .  S
C817        H828   1.110       .  S
C817        H829   1.110       .  S
C819        H830   1.110       .  S
C819        H831   1.106       .  S
C819        H832   1.111       .  S
C833        C834   1.398       .  A
C833        C838   1.400       .  A
C833        H843   1.085       .  S
C834        C835   1.409       .  A
C834        C839   1.472       .  S
C835        C836   1.401       .  A
C835        C840   1.507       .  S
C836        C837   1.404       .  A
C836        H841   1.084       .  S
C837        C838   1.417       .  A
C838        C842   1.508       .  S
C839        C844   1.409       .  A
C839        C848   1.399       .  A
C840        H856   1.110       .  S
C840        H857   1.110       .  S
C840        H858   1.111       .  S
C842        H853   1.110       .  S
C842        H854   1.111       .  S
C842        H855   1.107       .  S
C844        C845   1.399       .  A
C844        C849   1.507       .  S
C845        C846   1.403       .  A
C845        H850   1.084       .  S
C846        C847   1.416       .  A
C847        C848   1.402       .  A
C847        C851   1.507       .  S
C848        H852   1.085       .  S
C849        H859   1.111       .  S
C849        H860   1.110       .  S
C849        H861   1.110       .  S
C851        H862   1.110       .  S
C851        H863   1.106       .  S
C851        H864   1.111       .  S
C865        C866   1.400       .  A
C865        C870   1.401       .  A
C865        H875   1.085       .  S
C866        C867   1.411       .  A
C866        C871   1.481       .  S
C867        C868   1.405       .  A
C867        C872   1.506       .  S
C868        C869   1.404       .  A
C868        H873   1.084       .  S
C869        C870   1.416       .  A
C870        C874   1.508       .  S
C871        C876   1.411       .  A
C871        C880   1.401       .  A
C872        H888   1.110       .  S
C872        H889   1.110       .  S
C872        H890   1.111       .  S
C874        H885   1.111       .  S
C874        H886   1.110       .  S
C874        H887   1.107       .  S
C876        C877   1.403   1_554  A
C876        C881   1.507   1_554  S
C877        C878   1.404   1_556  A
C877        H882   1.084       .  S
C878        C879   1.417       .  A
C879        C880   1.402       .  A
C879        C883   1.508       .  S
C880        H884   1.085       .  S
C881        H891   1.111       .  S
C881        H892   1.109       .  S
C881        H893   1.110       .  S
C883        H894   1.110       .  S
C883        H895   1.107       .  S
C883        H896   1.111       .  S
C897        C898   1.398       .  A
C897        C902   1.400       .  A
C897        H907   1.085       .  S
C898        C899   1.409       .  A
C898        C903   1.473       .  S
C899        C900   1.401       .  A
C899        C904   1.507       .  S
C900        C901   1.404       .  A
C900        H905   1.084       .  S
C901        C902   1.416       .  A
C902        C906   1.508       .  S
C903        C908   1.409       .  A
C903        C912   1.399       .  A
C904        H920   1.110       .  S
C904        H921   1.110       .  S
C904        H922   1.111       .  S
C906        H917   1.111       .  S
C906        H918   1.110       .  S
C906        H919   1.106       .  S
C908        C909   1.402       .  A
C908        C913   1.507       .  S
C909        C910   1.405       .  A
C909        H914   1.084       .  S
C910        C911   1.416       .  A
C911        C912   1.400       .  A
C911        C915   1.508       .  S
C912        H916   1.085       .  S
C913        H923   1.111       .  S
C913        H924   1.110       .  S
C913        H925   1.110       .  S
C915        H926   1.111       .  S
C915        H927   1.107       .  S
C915        H928   1.110       .  S
C929        C930   1.400       .  A
C929        C934   1.405       .  A
C929        H939   1.084       .  S
C930        C931   1.409       .  A
C930        C935   1.478       .  S
C931        C932   1.401       .  A
C931        C936   1.506       .  S
C932        C933   1.405       .  A
C932        H937   1.084       .  S
C933        C934   1.417       .  A
C934        C938   1.507   1_554  S
C935        C940   1.408       .  A
C935        C944   1.400       .  A
C936        H952   1.110       .  S
C936        H953   1.110       .  S
C936        H954   1.111       .  S
C938        H949   1.107       .  S
C938        H950   1.111       .  S
C938        H951   1.110   1_556  S
C940        C941   1.402   1_565  A
C940        C945   1.506   1_554  S
C941        C942   1.406       .  A
C941        H946   1.084       .  S
C942        C943   1.418   1_545  A
C943        C944   1.403       .  A
C943        C947   1.507       .  S
C944        H948   1.085       .  S
C945        H955   1.111   1_565  S
C945        H956   1.110       .  S
C945        H957   1.110       .  S
C947        H958   1.110       .  S
C947        H959   1.106   1_565  S
C947        H960   1.111       .  S
C961        C962   1.399       .  A
C961        C966   1.402       .  A
C961        H971   1.085       .  S
C962        C963   1.409       .  A
C962        C967   1.475       .  S
C963        C964   1.400       .  A
C963        C968   1.507       .  S
C964        C965   1.405       .  A
C964        H969   1.084       .  S
C965        C966   1.419       .  A
C966        C970   1.508       .  S
C967        C972   1.407       .  A
C967        C976   1.399       .  A
C968        H984   1.110       .  S
C968        H985   1.110       .  S
C968        H986   1.111       .  S
C970        H981   1.111       .  S
C970        H982   1.110       .  S
C970        H983   1.106       .  S
C972        C973   1.400       .  A
C972        C977   1.507       .  S
C973        C974   1.407       .  A
C973        H978   1.083       .  S
C974        C975   1.419   1_554  A
C975        C976   1.403   1_556  A
C975        C979   1.507       .  S
C976        H980   1.085       .  S
C977        H987   1.111       .  S
C977        H988   1.110       .  S
C977        H989   1.110       .  S
C979        H990   1.111       .  S
C979        H991   1.106       .  S
C979        H992   1.110       .  S
C993        C994   1.398       .  A
C993        C998   1.402       .  A
C993       H1003   1.084       .  S
C994        C995   1.408       .  A
C994        C999   1.474       .  S
C995        C996   1.401       .  A
C995       C1000   1.507       .  S
C996        C997   1.406       .  A
C996       H1001   1.084   1_554  S
C997        C998   1.418       .  A
C998       C1002   1.507       .  S
C999       C1004   1.408       .  A
C999       C1008   1.399       .  A
C1000      H1016   1.110       .  S
C1000      H1017   1.110       .  S
C1000      H1018   1.111   1_554  S
C1002      H1013   1.107       .  S
C1002      H1014   1.111       .  S
C1002      H1015   1.110       .  S
C1004      C1005   1.399       .  A
C1004      C1009   1.507       .  S
C1005      C1006   1.405       .  A
C1005      H1010   1.084       .  S
C1006      C1007   1.418       .  A
C1007      C1008   1.403       .  A
C1007      C1011   1.508       .  S
C1008      H1012   1.085       .  S
C1009      H1019   1.111       .  S
C1009      H1020   1.110       .  S
C1009      H1021   1.110       .  S
C1011      H1022   1.111       .  S
C1011      H1023   1.106       .  S
C1011      H1024   1.110       .  S
C1025      C1026   1.399       .  A
C1025      C1030   1.400       .  A
C1025      H1035   1.085       .  S
C1026      C1027   1.409       .  A
C1026      C1031   1.477       .  S
C1027      C1028   1.405       .  A
C1027      C1032   1.506       .  S
C1028      C1029   1.405       .  A
C1028      H1033   1.084       .  S
C1029      C1030   1.417       .  A
C1030      C1034   1.508       .  S
C1031      C1036   1.408       .  A
C1031      C1040   1.400       .  A
C1032      H1048   1.110       .  S
C1032      H1049   1.110       .  S
C1032      H1050   1.111       .  S
C1034      H1045   1.111       .  S
C1034      H1046   1.110       .  S
C1034      H1047   1.106       .  S
C1036      C1037   1.400       .  A
C1036      C1041   1.507       .  S
C1037      C1038   1.405       .  A
C1037      H1042   1.084       .  S
C1038      C1039   1.418       .  A
C1039      C1040   1.404       .  A
C1039      C1043   1.508       .  S
C1040      H1044   1.085       .  S
C1041      H1051   1.111       .  S
C1041      H1052   1.110       .  S
C1041      H1053   1.110       .  S
C1043      H1054   1.111       .  S
C1043      H1055   1.106       .  S
C1043      H1056   1.110       .  S
C1057      C1058   1.403       .  A
C1057      C1062   1.407       .  A
C1057      H1067   1.084       .  S
C1058      C1059   1.410       .  A
C1058      C1063   1.482       .  S
C1059      C1060   1.402       .  A
C1059      C1064   1.506       .  S
C1060      C1061   1.404       .  A
C1060      H1065   1.084       .  S
C1061      C1062   1.414       .  A
C1062      C1066   1.506       .  S
C1063      C1068   1.410       .  A
C1063      C1072   1.401       .  A
C1064      H1080   1.110       .  S
C1064      H1081   1.110       .  S
C1064      H1082   1.111       .  S
C1066      H1077   1.111       .  S
C1066      H1078   1.109       .  S
C1066      H1079   1.110       .  S
C1068      C1069   1.404       .  A
C1068      C1073   1.506       .  S
C1069      C1070   1.406       .  A
C1069      H1074   1.084       .  S
C1070      C1071   1.416       .  A
C1071      C1072   1.405       .  A
C1071      C1075   1.506       .  S
C1072      H1076   1.084       .  S
C1073      H1083   1.111       .  S
C1073      H1084   1.110       .  S
C1073      H1085   1.110       .  S
C1075      H1086   1.111       .  S
C1075      H1087   1.110       .  S
C1075      H1088   1.108       .  S
C1089      C1090   1.399       .  A
C1089      C1094   1.401       .  A
C1089      H1099   1.085       .  S
C1090      C1091   1.409       .  A
C1090      C1095   1.476       .  S
C1091      C1092   1.401       .  A
C1091      C1096   1.507       .  S
C1092      C1093   1.406       .  A
C1092      H1097   1.084       .  S
C1093      C1094   1.418       .  A
C1094      C1098   1.508       .  S
C1095      C1100   1.409       .  A
C1095      C1104   1.399       .  A
C1096      H1112   1.110       .  S
C1096      H1113   1.110       .  S
C1096      H1114   1.111       .  S
C1098      H1109   1.110       .  S
C1098      H1110   1.111       .  S
C1098      H1111   1.106       .  S
C1100      C1101   1.401       .  A
C1100      C1105   1.507       .  S
C1101      C1102   1.405       .  A
C1101      H1106   1.084       .  S
C1102      C1103   1.418       .  A
C1103      C1104   1.401       .  A
C1103      C1107   1.508       .  S
C1104      H1108   1.085       .  S
C1105      H1115   1.111       .  S
C1105      H1116   1.110       .  S
C1105      H1117   1.110       .  S
C1107      H1118   1.111       .  S
C1107      H1119   1.106       .  S
C1107      H1120   1.110       .  S
C1121      C1122   1.401       .  A
C1121      C1126   1.403       .  A
C1121      H1131   1.084       .  S
C1122      C1123   1.410       .  A
C1122      C1127   1.477       .  S
C1123      C1124   1.403       .  A
C1123      C1128   1.506       .  S
C1124      C1125   1.403       .  A
C1124      H1129   1.084       .  S
C1125      C1126   1.414       .  A
C1126      C1130   1.507       .  S
C1127      C1132   1.409       .  A
C1127      C1136   1.401       .  A
C1128      H1144   1.110       .  S
C1128      H1145   1.110       .  S
C1128      H1146   1.111       .  S
C1130      H1141   1.110       .  S
C1130      H1142   1.111       .  S
C1130      H1143   1.108       .  S
C1132      C1133   1.403       .  A
C1132      C1137   1.506       .  S
C1133      C1134   1.405       .  A
C1133      H1138   1.084       .  S
C1134      C1135   1.414       .  A
C1135      C1136   1.403       .  A
C1135      C1139   1.506       .  S
C1136      H1140   1.084       .  S
C1137      H1147   1.111       .  S
C1137      H1148   1.110       .  S
C1137      H1149   1.110       .  S
C1139      H1150   1.111       .  S
C1139      H1151   1.110       .  S
C1139      H1152   1.108       .  S
C1153      C1154   1.399       .  A
C1153      C1158   1.399       .  A
C1153      H1163   1.085       .  S
C1154      C1155   1.409       .  A
C1154      C1159   1.475       .  S
C1155      C1156   1.403       .  A
C1155      C1160   1.506       .  S
C1156      C1157   1.405       .  A
C1156      H1161   1.084       .  S
C1157      C1158   1.416       .  A
C1158      C1162   1.508       .  S
C1159      C1164   1.408       .  A
C1159      C1168   1.399       .  A
C1160      H1176   1.110       .  S
C1160      H1177   1.110       .  S
C1160      H1178   1.111       .  S
C1162      H1173   1.111       .  S
C1162      H1174   1.110       .  S
C1162      H1175   1.107       .  S
C1164      C1165   1.402       .  A
C1164      C1169   1.506       .  S
C1165      C1166   1.406       .  A
C1165      H1170   1.084       .  S
C1166      C1167   1.417       .  A
C1167      C1168   1.402       .  A
C1167      C1171   1.507       .  S
C1168      H1172   1.084       .  S
C1169      H1179   1.111       .  S
C1169      H1180   1.110       .  S
C1169      H1181   1.110       .  S
C1171      H1182   1.111       .  S
C1171      H1183   1.110       .  S
C1171      H1184   1.107       .  S
C1185      C1186   1.400       .  A
C1185      C1190   1.403       .  A
C1185      H1195   1.085       .  S
C1186      C1187   1.409       .  A
C1186      C1191   1.481       .  S
C1187      C1188   1.404       .  A
C1187      C1192   1.506   1_655  S
C1188      C1189   1.406       .  A
C1188      H1193   1.084   1_655  S
C1189      C1190   1.420       .  A
C1190      C1194   1.508       .  S
C1191      C1196   1.409       .  A
C1191      C1200   1.400       .  A
C1192      H1208   1.110       .  S
C1192      H1209   1.110   1_455  S
C1192      H1210   1.111       .  S
C1194      H1205   1.110       .  S
C1194      H1206   1.111       .  S
C1194      H1207   1.105       .  S
C1196      C1197   1.403       .  A
C1196      C1201   1.506       .  S
C1197      C1198   1.407       .  A
C1197      H1202   1.084       .  S
C1198      C1199   1.419       .  A
C1199      C1200   1.403       .  A
C1199      C1203   1.508       .  S
C1200      H1204   1.085       .  S
C1201      H1211   1.111       .  S
C1201      H1212   1.110       .  S
C1201      H1213   1.110       .  S
C1203      H1214   1.111       .  S
C1203      H1215   1.105       .  S
C1203      H1216   1.110   1_655  S
C1217      C1218   1.399       .  A
C1217      C1222   1.402       .  A
C1217      H1227   1.085       .  S
C1218      C1219   1.409       .  A
C1218      C1223   1.475       .  S
C1219      C1220   1.401       .  A
C1219      C1224   1.507       .  S
C1220      C1221   1.404       .  A
C1220      H1225   1.084       .  S
C1221      C1222   1.417       .  A
C1222      C1226   1.508       .  S
C1223      C1228   1.410       .  A
C1223      C1232   1.399       .  A
C1224      H1240   1.110       .  S
C1224      H1241   1.110       .  S
C1224      H1242   1.111       .  S
C1226      H1237   1.111       .  S
C1226      H1238   1.110       .  S
C1226      H1239   1.105       .  S
C1228      C1229   1.401       .  A
C1228      C1233   1.506       .  S
C1229      C1230   1.403       .  A
C1229      H1234   1.084       .  S
C1230      C1231   1.415       .  A
C1231      C1232   1.402       .  A
C1231      C1235   1.507       .  S
C1232      H1236   1.084       .  S
C1233      H1243   1.111       .  S
C1233      H1244   1.110       .  S
C1233      H1245   1.110       .  S
C1235      H1246   1.111       .  S
C1235      H1247   1.110       .  S
C1235      H1248   1.107       .  S
C1249      C1250   1.399       .  A
C1249      C1254   1.400       .  A
C1249      H1259   1.085       .  S
C1250      C1251   1.409       .  A
C1250      C1255   1.475       .  S
C1251      C1252   1.402       .  A
C1251      C1256   1.506       .  S
C1252      C1253   1.404       .  A
C1252      H1257   1.084       .  S
C1253      C1254   1.417       .  A
C1254      C1258   1.508       .  S
C1255      C1260   1.408       .  A
C1255      C1264   1.401       .  A
C1256      H1272   1.110       .  S
C1256      H1273   1.110       .  S
C1256      H1274   1.111       .  S
C1258      H1269   1.110       .  S
C1258      H1270   1.111       .  S
C1258      H1271   1.106       .  S
C1260      C1261   1.399       .  A
C1260      C1265   1.507       .  S
C1261      C1262   1.404       .  A
C1261      H1266   1.084       .  S
C1262      C1263   1.416       .  A
C1263      C1264   1.402       .  A
C1263      C1267   1.507       .  S
C1264      H1268   1.085       .  S
C1265      H1275   1.111       .  S
C1265      H1276   1.110       .  S
C1265      H1277   1.110       .  S
C1267      H1278   1.110       .  S
C1267      H1279   1.106       .  S
C1267      H1280   1.111       .  S
C1281      C1282   1.399       .  A
C1281      C1286   1.400       .  A
C1281      H1291   1.085       .  S
C1282      C1283   1.409       .  A
C1282      C1287   1.475       .  S
C1283      C1284   1.402       .  A
C1283      C1288   1.507       .  S
C1284      C1285   1.404       .  A
C1284      H1289   1.084       .  S
C1285      C1286   1.417       .  A
C1286      C1290   1.508       .  S
C1287      C1292   1.409       .  A
C1287      C1296   1.401       .  A
C1288      H1304   1.110       .  S
C1288      H1305   1.109       .  S
C1288      H1306   1.111       .  S
C1290      H1301   1.111       .  S
C1290      H1302   1.110       .  S
C1290      H1303   1.106       .  S
C1292      C1293   1.399       .  A
C1292      C1297   1.508       .  S
C1293      C1294   1.403       .  A
C1293      H1298   1.084       .  S
C1294      C1295   1.415       .  A
C1295      C1296   1.405       .  A
C1295      C1299   1.506       .  S
C1296      H1300   1.084       .  S
C1297      H1307   1.111       .  S
C1297      H1308   1.110       .  S
C1297      H1309   1.109       .  S
C1299      H1310   1.108       .  S
C1299      H1311   1.110       .  S
C1299      H1312   1.111       .  S
C1313      C1314   1.399       .  A
C1313      C1318   1.402       .  A
C1313      H1323   1.085       .  S
C1314      C1315   1.411       .  A
C1314      C1319   1.479       .  S
C1315      C1316   1.405       .  A
C1315      C1320   1.506       .  S
C1316      C1317   1.404       .  A
C1316      H1321   1.084       .  S
C1317      C1318   1.417       .  A
C1318      C1322   1.508       .  S
C1319      C1324   1.409       .  A
C1319      C1328   1.400       .  A
C1320      H1336   1.110       .  S
C1320      H1337   1.110       .  S
C1320      H1338   1.111       .  S
C1322      H1333   1.111       .  S
C1322      H1334   1.110       .  S
C1322      H1335   1.107       .  S
C1324      C1325   1.404       .  A
C1324      C1329   1.506       .  S
C1325      C1326   1.405       .  A
C1325      H1330   1.084       .  S
C1326      C1327   1.417       .  A
C1327      C1328   1.402       .  A
C1327      C1331   1.508       .  S
C1328      H1332   1.085       .  S
C1329      H1339   1.111       .  S
C1329      H1340   1.110       .  S
C1329      H1341   1.110       .  S
C1331      H1342   1.111       .  S
C1331      H1343   1.107       .  S
C1331      H1344   1.110       .  S
C1345      C1346   1.400       .  A
C1345      C1350   1.403       .  A
C1345      H1355   1.084       .  S
C1346      C1347   1.410       .  A
C1346      C1351   1.478       .  S
C1347      C1348   1.402       .  A
C1347      C1352   1.507       .  S
C1348      C1349   1.404       .  A
C1348      H1353   1.084       .  S
C1349      C1350   1.417       .  A
C1350      C1354   1.507       .  S
C1351      C1356   1.409       .  A
C1351      C1360   1.400       .  A
C1352      H1368   1.110       .  S
C1352      H1369   1.110       .  S
C1352      H1370   1.111       .  S
C1354      H1365   1.111       .  S
C1354      H1366   1.110       .  S
C1354      H1367   1.107       .  S
C1356      C1357   1.404       .  A
C1356      C1361   1.506       .  S
C1357      C1358   1.406       .  A
C1357      H1362   1.084       .  S
C1358      C1359   1.416       .  A
C1359      C1360   1.402       .  A
C1359      C1363   1.508       .  S
C1360      H1364   1.085       .  S
C1361      H1371   1.111       .  S
C1361      H1372   1.110       .  S
C1361      H1373   1.110       .  S
C1363      H1374   1.111       .  S
C1363      H1375   1.106       .  S
C1363      H1376   1.110       .  S
C1377      C1378   1.399       .  A
C1377      C1382   1.405       .  A
C1377      H1387   1.084       .  S
C1378      C1379   1.408       .  A
C1378      C1383   1.482       .  S
C1379      C1380   1.405       .  A
C1379      C1384   1.506       .  S
C1380      C1381   1.408       .  A
C1380      H1385   1.084       .  S
C1381      C1382   1.422       .  A
C1382      C1386   1.507       .  S
C1383      C1388   1.411       .  A
C1383      C1392   1.403       .  A
C1384      H1400   1.110       .  S
C1384      H1401   1.110       .  S
C1384      H1402   1.111       .  S
C1386      H1397   1.111       .  S
C1386      H1398   1.107       .  S
C1386      H1399   1.110       .  S
C1388      C1389   1.402       .  A
C1388      C1393   1.507       .  S
C1389      C1390   1.403       .  A
C1389      H1394   1.084       .  S
C1390      C1391   1.413       .  A
C1391      C1392   1.407       .  A
C1391      C1395   1.506       .  S
C1392      H1396   1.084       .  S
C1393      H1403   1.111       .  S
C1393      H1404   1.110       .  S
C1393      H1405   1.110       .  S
C1395      H1406   1.111       .  S
C1395      H1407   1.111       .  S
C1395      H1408   1.109       .  S
C1409      C1410   1.399       .  A
C1409      C1414   1.402   1_545  A
C1409      H1419   1.085       .  S
C1410      C1411   1.409       .  A
C1410      C1415   1.477       .  S
C1411      C1412   1.402   1_545  A
C1411      C1416   1.507       .  S
C1412      C1413   1.406       .  A
C1412      H1417   1.084       .  S
C1413      C1414   1.418       .  A
C1414      C1418   1.508       .  S
C1415      C1420   1.409       .  A
C1415      C1424   1.399       .  A
C1416      H1432   1.110       .  S
C1416      H1433   1.110       .  S
C1416      H1434   1.111       .  S
C1418      H1429   1.110   1_565  S
C1418      H1430   1.111       .  S
C1418      H1431   1.106       .  S
C1420      C1421   1.401       .  A
C1420      C1425   1.507       .  S
C1421      C1422   1.405       .  A
C1421      H1426   1.084       .  S
C1422      C1423   1.418       .  A
C1423      C1424   1.402       .  A
C1423      C1427   1.508       .  S
C1424      H1428   1.085       .  S
C1425      H1435   1.111       .  S
C1425      H1436   1.110       .  S
C1425      H1437   1.110       .  S
C1427      H1438   1.110       .  S
C1427      H1439   1.106       .  S
C1427      H1440   1.111       .  S
C1441      C1442   1.401       .  A
C1441      C1446   1.403       .  A
C1441      H1451   1.085       .  S
C1442      C1443   1.409       .  A
C1442      C1447   1.479       .  S
C1443      C1444   1.402       .  A
C1443      C1448   1.506       .  S
C1444      C1445   1.405       .  A
C1444      H1449   1.084       .  S
C1445      C1446   1.416       .  A
C1446      C1450   1.508       .  S
C1447      C1452   1.410       .  A
C1447      C1456   1.400       .  A
C1448      H1464   1.110       .  S
C1448      H1465   1.110       .  S
C1448      H1466   1.111       .  S
C1450      H1461   1.111       .  S
C1450      H1462   1.110       .  S
C1450      H1463   1.106       .  S
C1452      C1453   1.403       .  A
C1452      C1457   1.506       .  S
C1453      C1454   1.404       .  A
C1453      H1458   1.084       .  S
C1454      C1455   1.417       .  A
C1455      C1456   1.402       .  A
C1455      C1459   1.508       .  S
C1456      H1460   1.084       .  S
C1457      H1467   1.111       .  S
C1457      H1468   1.110       .  S
C1457      H1469   1.110       .  S
C1459      H1470   1.110       .  S
C1459      H1471   1.107       .  S
C1459      H1472   1.111       .  S
C1473      C1474   1.400       .  A
C1473      C1478   1.403       .  A
C1473      H1483   1.085       .  S
C1474      C1475   1.410       .  A
C1474      C1479   1.478       .  S
C1475      C1476   1.403       .  A
C1475      C1480   1.506       .  S
C1476      C1477   1.403       .  A
C1476      H1481   1.084       .  S
C1477      C1478   1.416       .  A
C1478      C1482   1.507       .  S
C1479      C1484   1.409       .  A
C1479      C1488   1.400       .  A
C1480      H1496   1.110       .  S
C1480      H1497   1.110       .  S
C1480      H1498   1.111       .  S
C1482      H1493   1.111       .  S
C1482      H1494   1.110       .  S
C1482      H1495   1.107       .  S
C1484      C1485   1.403       .  A
C1484      C1489   1.506       .  S
C1485      C1486   1.405       .  A
C1485      H1490   1.084       .  S
C1486      C1487   1.417       .  A
C1487      C1488   1.403       .  A
C1487      C1491   1.508       .  S
C1488      H1492   1.085       .  S
C1489      H1499   1.111       .  S
C1489      H1500   1.110       .  S
C1489      H1501   1.110       .  S
C1491      H1502   1.111       .  S
C1491      H1503   1.106       .  S
C1491      H1504   1.110       .  S
C1505      C1506   1.399       .  A
C1505      C1510   1.399       .  A
C1505      H1515   1.085       .  S
C1506      C1507   1.409       .  A
C1506      C1511   1.474       .  S
C1507      C1508   1.403       .  A
C1507      C1512   1.506       .  S
C1508      C1509   1.404       .  A
C1508      H1513   1.084       .  S
C1509      C1510   1.416       .  A
C1510      C1514   1.508       .  S
C1511      C1516   1.408       .  A
C1511      C1520   1.400       .  A
C1512      H1528   1.110       .  S
C1512      H1529   1.110       .  S
C1512      H1530   1.111       .  S
C1514      H1525   1.110       .  S
C1514      H1526   1.111       .  S
C1514      H1527   1.107       .  S
C1516      C1517   1.400       .  A
C1516      C1521   1.507       .  S
C1517      C1518   1.404       .  A
C1517      H1522   1.084       .  S
C1518      C1519   1.417       .  A
C1519      C1520   1.402       .  A
C1519      C1523   1.508       .  S
C1520      H1524   1.085       .  S
C1521      H1531   1.111       .  S
C1521      H1532   1.110       .  S
C1521      H1533   1.110       .  S
C1523      H1534   1.111       .  S
C1523      H1535   1.105       .  S
C1523      H1536   1.110       .  S
C1537      C1538   1.399       .  A
C1537      C1542   1.402       .  A
C1537      H1547   1.084       .  S
C1538      C1539   1.409       .  A
C1538      C1543   1.475       .  S
C1539      C1540   1.401       .  A
C1539      C1544   1.507       .  S
C1540      C1541   1.404       .  A
C1540      H1545   1.084       .  S
C1541      C1542   1.417       .  A
C1542      C1546   1.508       .  S
C1543      C1548   1.408       .  A
C1543      C1552   1.399       .  A
C1544      H1560   1.110       .  S
C1544      H1561   1.110       .  S
C1544      H1562   1.111       .  S
C1546      H1557   1.110       .  S
C1546      H1558   1.111       .  S
C1546      H1559   1.106       .  S
C1548      C1549   1.401       .  A
C1548      C1553   1.506       .  S
C1549      C1550   1.405       .  A
C1549      H1554   1.084       .  S
C1550      C1551   1.417       .  A
C1551      C1552   1.403       .  A
C1551      C1555   1.508       .  S
C1552      H1556   1.084       .  S
C1553      H1563   1.111       .  S
C1553      H1564   1.110       .  S
C1553      H1565   1.110       .  S
C1555      H1566   1.110       .  S
C1555      H1567   1.111       .  S
C1555      H1568   1.107       .  S
C1569      C1570   1.400       .  A
C1569      C1574   1.403       .  A
C1569      H1579   1.084       .  S
C1570      C1571   1.410       .  A
C1570      C1575   1.478       .  S
C1571      C1572   1.402       .  A
C1571      C1576   1.507       .  S
C1572      C1573   1.404       .  A
C1572      H1577   1.084       .  S
C1573      C1574   1.416       .  A
C1574      C1578   1.507       .  S
C1575      C1580   1.410       .  A
C1575      C1584   1.400       .  A
C1576      H1592   1.110       .  S
C1576      H1593   1.110       .  S
C1576      H1594   1.111       .  S
C1578      H1589   1.111       .  S
C1578      H1590   1.107       .  S
C1578      H1591   1.110       .  S
C1580      C1581   1.403       .  A
C1580      C1585   1.506       .  S
C1581      C1582   1.404       .  A
C1581      H1586   1.084       .  S
C1582      C1583   1.415       .  A
C1583      C1584   1.403       .  A
C1583      C1587   1.507       .  S
C1584      H1588   1.084       .  S
C1585      H1595   1.111       .  S
C1585      H1596   1.110       .  S
C1585      H1597   1.110       .  S
C1587      H1598   1.111       .  S
C1587      H1599   1.110       .  S
C1587      H1600   1.107       .  S
C1601      C1602   1.401       .  A
C1601      C1606   1.405       .  A
C1601      H1611   1.084       .  S
C1602      C1603   1.409       .  A
C1602      C1607   1.476       .  S
C1603      C1604   1.399       .  A
C1603      C1608   1.507       .  S
C1604      C1605   1.402       .  A
C1604      H1609   1.084       .  S
C1605      C1606   1.415       .  A
C1606      C1610   1.507       .  S
C1607      C1612   1.409       .  A
C1607      C1616   1.399       .  A
C1608      H1624   1.110       .  S
C1608      H1625   1.110       .  S
C1608      H1626   1.111       .  S
C1610      H1621   1.111       .  S
C1610      H1622   1.110       .  S
C1610      H1623   1.108       .  S
C1612      C1613   1.403       .  A
C1612      C1617   1.506       .  S
C1613      C1614   1.404       .  A
C1613      H1618   1.084       .  S
C1614      C1615   1.416       .  A
C1615      C1616   1.402       .  A
C1615      C1619   1.507       .  S
C1616      H1620   1.084       .  S
C1617      H1627   1.111       .  S
C1617      H1628   1.110       .  S
C1617      H1629   1.110       .  S
C1619      H1630   1.108       .  S
C1619      H1631   1.110       .  S
C1619      H1632   1.111       .  S
C1633      C1634   1.401       .  A
C1633      C1638   1.403       .  A
C1633      H1643   1.084       .  S
C1634      C1635   1.409       .  A
C1634      C1639   1.477       .  S
C1635      C1636   1.401       .  A
C1635      C1640   1.506       .  S
C1636      C1637   1.402       .  A
C1636      H1641   1.084       .  S
C1637      C1638   1.416       .  A
C1638      C1642   1.508       .  S
C1639      C1644   1.409       .  A
C1639      C1648   1.401       .  A
C1640      H1656   1.110       .  S
C1640      H1657   1.110       .  S
C1640      H1658   1.111       .  S
C1642      H1653   1.111       .  S
C1642      H1654   1.110       .  S
C1642      H1655   1.106       .  S
C1644      C1645   1.401       .  A
C1644      C1649   1.507       .  S
C1645      C1646   1.404       .  A
C1645      H1650   1.084       .  S
C1646      C1647   1.415       .  A
C1647      C1648   1.403       .  A
C1647      C1651   1.507       .  S
C1648      H1652   1.084       .  S
C1649      H1659   1.111       .  S
C1649      H1660   1.110       .  S
C1649      H1661   1.110       .  S
C1651      H1662   1.111       .  S
C1651      H1663   1.107       .  S
C1651      H1664   1.110       .  S
C1665      C1666   1.399   1_565  A
C1665      C1670   1.402       .  A
C1665      H1675   1.084   1_565  S
C1666      C1667   1.409   1_545  A
C1666      C1671   1.475       .  S
C1667      C1668   1.402       .  A
C1667      C1672   1.506   1_565  S
C1668      C1669   1.404       .  A
C1668      H1673   1.084       .  S
C1669      C1670   1.416       .  A
C1670      C1674   1.508       .  S
C1671      C1676   1.409       .  A
C1671      C1680   1.400       .  A
C1672      H1688   1.110       .  S
C1672      H1689   1.110       .  S
C1672      H1690   1.111   1_545  S
C1674      H1685   1.111       .  S
C1674      H1686   1.107       .  S
C1674      H1687   1.110       .  S
C1676      C1677   1.402       .  A
C1676      C1681   1.506       .  S
C1677      C1678   1.403       .  A
C1677      H1682   1.084       .  S
C1678      C1679   1.415       .  A
C1679      C1680   1.402       .  A
C1679      C1683   1.507       .  S
C1680      H1684   1.084       .  S
C1681      H1691   1.111       .  S
C1681      H1692   1.110       .  S
C1681      H1693   1.110       .  S
C1683      H1694   1.111       .  S
C1683      H1695   1.110       .  S
C1683      H1696   1.108       .  S
C1697      C1698   1.398       .  A
C1697      C1702   1.401       .  A
C1697      H1707   1.085       .  S
C1698      C1699   1.409       .  A
C1698      C1703   1.474       .  S
C1699      C1700   1.400       .  A
C1699      C1704   1.507       .  S
C1700      C1701   1.404       .  A
C1700      H1705   1.084       .  S
C1701      C1702   1.419       .  A
C1702      C1706   1.508       .  S
C1703      C1708   1.408       .  A
C1703      C1712   1.399       .  A
C1704      H1720   1.110       .  S
C1704      H1721   1.110       .  S
C1704      H1722   1.111       .  S
C1706      H1717   1.111       .  S
C1706      H1718   1.110       .  S
C1706      H1719   1.105       .  S
C1708      C1709   1.401       .  A
C1708      C1713   1.506       .  S
C1709      C1710   1.404       .  A
C1709      H1714   1.084       .  S
C1710      C1711   1.418       .  A
C1711      C1712   1.401       .  A
C1711      C1715   1.508       .  S
C1712      H1716   1.085       .  S
C1713      H1723   1.111       .  S
C1713      H1724   1.110       .  S
C1713      H1725   1.110       .  S
C1715      H1726   1.110       .  S
C1715      H1727   1.105       .  S
C1715      H1728   1.111       .  S
