geometry optimzed in LAMMPS
_audit_creation_date              2020-12-01 
_audit_creation_method            'lammps2cif' 
_symmetry_space_group_name_H-M    'P1' 
_symmetry_Int_Tables_number       1 
_symmetry_cell_setting            triclinic 
loop_ 
_symmetry_equiv_pos_as_xyz 
  x,y,z 
_cell_length_a                    63.98468666 
_cell_length_b                    64.10840710625872 
_cell_length_c                    51.09712684100039 
_cell_angle_alpha                 90.01602477461635 
_cell_angle_beta                  90.03886362803175 
_cell_angle_gamma                 125.38997913487832 
loop_ 
_atom_site_label 
_atom_site_type_symbol 
_atom_site_fract_x 
_atom_site_fract_y 
_atom_site_fract_z 
_atom_site_charge 
C1          C  0.47064923  0.89240115  0.00725459     0.03100
C2          C  0.48579758  0.91914670  0.00483421    -0.13100
C3          C  0.47458589  0.93250386  0.00639441     0.00600
C4          C  0.44804483  0.91885814  0.00978510    -0.11600
C5          C  0.43288130  0.89219564  0.01262280     0.03100
C6          C  0.44422242  0.87895896  0.01155620    -0.11000
H7          H  0.50633495  0.92956535  0.00214768     0.08700
H8          H  0.43931055  0.92910164  0.01143739     0.06200
H9          H  0.43257927  0.85837147  0.01408138     0.06000
C10         C  0.55444842  0.45970824  0.70238548     0.03100
C11         C  0.53895647  0.43310463  0.70622119    -0.13100
C12         C  0.51225247  0.41986827  0.70809884     0.00600
C13         C  0.50124446  0.43341765  0.70680995    -0.11600
C14         C  0.51654860  0.46003132  0.70340864     0.03100
C15         C  0.54315518  0.47300399  0.70067584    -0.11000
H16         H  0.54760081  0.42276588  0.70753794     0.08700
H17         H  0.48068002  0.42319965  0.70906923     0.06200
H18         H  0.55518202  0.49351745  0.69758636     0.06000
C19         C  0.09479115  0.51813651  0.42138813     0.03100
C20         C  0.06818559  0.50560895  0.42301308    -0.13100
C21         C  0.05718153  0.51862118  0.41720411     0.00600
C22         C  0.07302253  0.54455935  0.41034293    -0.11600
C23         C  0.09966302  0.55738083  0.40880901     0.03100
C24         C  0.11055113  0.54411305  0.41428086    -0.11000
H25         H  0.05593546  0.48542020  0.42784171     0.08700
H26         H  0.06462074  0.55479723  0.40608941     0.06200
H27         H  0.13110640  0.55386501  0.41279383     0.06000
N28         N  0.34896300  0.08275575  0.02709421    -0.27300
N29         N  0.36561505  0.08779746  0.04570588    -0.35200
C30         C  0.35473567  0.06799734  0.06239776     0.01000
C31         C  0.33014240  0.04933172  0.05376551     0.07000
C32         C  0.32714938  0.05953124  0.03137678    -0.06100
H33         H  0.36528554  0.06560110  0.07720226     0.07700
H34         H  0.31195891  0.04930255  0.01706414     0.08900
Cu35       Cu  0.40477921  0.11422567  0.04150624     0.44200
Cu36       Cu  0.35911256  0.10344531  0.99274574     0.42000
Cu37       Cu  0.42614918  0.13624024  0.97574394     0.43900
N38         N  0.43963190  0.12408018  0.02714365    -0.34700
N39         N  0.44679879  0.13046926  0.00253063    -0.29000
C40         C  0.46649911  0.12883604  0.99775431    -0.05100
C41         C  0.47178169  0.12064445  0.02036066     0.07100
C42         C  0.45465306  0.11846288  0.03871423     0.00900
H43         H  0.47485652  0.13122340  0.97862547     0.08600
H44         H  0.45196282  0.11178523  0.05860682     0.07700
N45         N  0.39984746  0.13750910  0.95322666    -0.36200
N46         N  0.37538305  0.12541687  0.95944957    -0.28400
C47         C  0.36340567  0.12952603  0.94072432    -0.03600
C48         C  0.38125610  0.14524231  0.92190400     0.05000
C49         C  0.40408571  0.14969864  0.93033989     0.03100
H50         H  0.34304580  0.12087205  0.94051660     0.08200
H51         H  0.42242429  0.16091465  0.92049850     0.07000
N52         N  0.30978389  0.21144218  0.75061328    -0.27300
N53         N  0.32136416  0.22699855  0.73051833    -0.35200
C54         C  0.30518427  0.23106874  0.71903032     0.01000
C55         C  0.28237484  0.21791445  0.73276777     0.07000
C56         C  0.28592425  0.20552676  0.75268764    -0.06100
H57         H  0.31072289  0.24516757  0.70388646     0.07700
H58         H  0.27295560  0.19470837  0.76866054     0.08900
Cu59       Cu  0.36047032  0.24855116  0.72452090     0.44200
Cu60       Cu  0.32893122  0.20258532  0.77595785     0.42000
Cu61       Cu  0.39915800  0.24050352  0.76714106     0.43900
N62         N  0.39959473  0.27527903  0.72806158    -0.34700
N63         N  0.41417605  0.27266213  0.74397573    -0.29000
C64         C  0.43800025  0.29454892  0.74405443    -0.05100
C65         C  0.43831347  0.31189624  0.72745235     0.07100
C66         C  0.41358319  0.29881261  0.71763964     0.00900
H67         H  0.45361583  0.29764096  0.75581802     0.08600
H68         H  0.40585795  0.30631475  0.70496654     0.07700
N69         N  0.37824329  0.20970085  0.79231079    -0.36200
N70         N  0.35321198  0.19661787  0.79614565    -0.28400
C71         C  0.34666637  0.18018599  0.81602417    -0.03600
C72         C  0.36852808  0.18284593  0.82490708     0.05000
C73         C  0.38818158  0.20183982  0.80953397     0.03100
H74         H  0.32758569  0.16801240  0.82418793     0.08200
H75         H  0.40848986  0.21084476  0.81201631     0.07000
N76         N  0.11747480  0.75029371  0.36596261    -0.27300
N77         N  0.11557791  0.73658549  0.38627475    -0.35200
C78         C  0.09507700  0.73029341  0.40050025     0.01000
C79         C  0.08323128  0.74015376  0.38834075     0.07000
C80         C  0.09819145  0.75303899  0.36662005    -0.06100
H81         H  0.08741369  0.71672392  0.41648118     0.07700
H82         H  0.09390922  0.76143033  0.35102014     0.08900
Cu83       Cu  0.13546744  0.72024038  0.38903146     0.44200
Cu84       Cu  0.14186570  0.75850733  0.33525322     0.42000
Cu85       Cu  0.17241633  0.72491510  0.33265285     0.43900
N86         N  0.14850374  0.69757442  0.38364585    -0.34700
N87         N  0.16122626  0.69854973  0.36275145    -0.29000
C88         C  0.16240301  0.67824335  0.36307718    -0.05100
C89         C  0.15011281  0.66401873  0.38539992     0.07100
C90         C  0.14147441  0.67683396  0.39785055     0.00900
H91         H  0.16999627  0.67319897  0.34732919     0.08600
H92         H  0.12886456  0.67020719  0.41463250     0.07700
N93         N  0.17706417  0.75070638  0.30441858    -0.36200
N94         N  0.16553480  0.76238810  0.30551852    -0.28400
C95         C  0.17115497  0.77662726  0.28395803    -0.03600
C96         C  0.18740674  0.77425820  0.26860015     0.05000
C97         C  0.19053345  0.75743311  0.28199742     0.03100
H98         H  0.16299819  0.78698368  0.27946880     0.08200
H99         H  0.20153332  0.75037981  0.27574760     0.07000
N100        N  0.26009293  0.90180054  0.08063603    -0.27300
N101        N  0.27229182  0.90343382  0.05903734    -0.35200
C102        C  0.28308787  0.92664325  0.04840113     0.01000
C103        C  0.27760213  0.94043598  0.06410595     0.07000
C104        C  0.26273490  0.92402800  0.08425618    -0.06100
H105        H  0.29621749  0.93386399  0.03202411     0.07700
H106        H  0.25678904  0.92885966  0.10168355     0.08900
Cu107      Cu  0.28095347  0.87808396  0.04919389     0.44200
Cu108      Cu  0.24646890  0.87206236  0.10702302     0.42000
Cu109      Cu  0.27188431  0.83363789  0.09791690     0.43900
N110        N  0.29948284  0.86042121  0.04842414    -0.34700
N111        N  0.29657841  0.84427373  0.06654745    -0.29000
C112        C  0.31482440  0.84020847  0.06342173    -0.05100
C113        C  0.33032638  0.85499429  0.04259090     0.07100
C114        C  0.31969418  0.86722771  0.03341012     0.00900
H115        H  0.31749402  0.82866304  0.07647532     0.08600
H116        H  0.32760875  0.88200369  0.01861289     0.07700
N117        N  0.24878412  0.82952129  0.12878314    -0.36200
N118        N  0.23937664  0.84308056  0.13188650    -0.28400
C119        C  0.22609565  0.83607780  0.15437902    -0.03600
C120        C  0.22702003  0.81710241  0.16597069     0.05000
C121        C  0.24185915  0.81368739  0.14929106     0.03100
H122        H  0.21690279  0.84460797  0.16203316     0.08200
H123        H  0.24848382  0.80174721  0.15231015     0.07000
C124        C  0.53347252  0.08095947  0.01619542     0.03100
C125        C  0.56022390  0.09543907  0.01965211    -0.13100
C126        C  0.57329728  0.08399601  0.01665861     0.00600
C127        C  0.55948313  0.05783797  0.01098122    -0.11600
C128        C  0.53276157  0.04286275  0.00866229     0.03100
C129        C  0.51990430  0.05457982  0.01083562    -0.11000
H130        H  0.57083365  0.11541994  0.02517164     0.08700
H131        H  0.56946940  0.04880886  0.00971063     0.06200
H132        H  0.49921413  0.04298013  0.00902740     0.06000
N133        N  0.07362533  0.32065855  0.44068027    -0.27300
N134        N  0.07511789  0.33548013  0.42176846    -0.35200
C135        C  0.05377088  0.32215961  0.40716684     0.01000
C136        C  0.03777804  0.29776676  0.41750312     0.07000
C137        C  0.05118923  0.29745193  0.43867116    -0.06100
H138        H  0.04909301  0.33045063  0.39182487     0.07700
H139        H  0.04463153  0.28213401  0.45257242     0.08900
Cu140      Cu  0.10197196  0.37466140  0.42107873     0.44200
Cu141      Cu  0.09974371  0.33463481  0.47106330     0.42000
Cu142      Cu  0.13873626  0.40425201  0.47982850     0.43900
N143        N  0.11995333  0.41290348  0.42980471    -0.34700
N144        N  0.13279989  0.42377216  0.45168271    -0.29000
C145        C  0.13708288  0.44687769  0.45395765    -0.05100
C146        C  0.12649434  0.45074280  0.43242508     0.07100
C147        C  0.11570424  0.42869622  0.41765408     0.00900
H148        H  0.14532485  0.45901169  0.47105851     0.08600
H149        H  0.10302763  0.42315925  0.40104865     0.07700
N150        N  0.13932706  0.37898363  0.50486416    -0.36200
N151        N  0.12550090  0.35393523  0.50132593    -0.28400
C152        C  0.13036193  0.34326294  0.52081505    -0.03600
C153        C  0.14818104  0.36242444  0.53755029     0.05000
C154        C  0.15327206  0.38484725  0.52684938     0.03100
H155        H  0.12156740  0.32296324  0.52255377     0.08200
H156        H  0.16572128  0.40401752  0.53462757     0.07000
N157        N  0.22617215  0.29587716  0.70508578    -0.27300
N158        N  0.24529835  0.30949571  0.72180510    -0.35200
C159        C  0.25177934  0.29466537  0.73188440     0.01000
C160        C  0.23629339  0.27054580  0.72092961     0.07000
C161        C  0.22012095  0.27194638  0.70407393    -0.06100
H162        H  0.26787978  0.30147749  0.74488827     0.07700
H163        H  0.20557471  0.25706067  0.69139252     0.08900
Cu164      Cu  0.26530568  0.34854939  0.72770564     0.44200
Cu165      Cu  0.21099635  0.31119415  0.68243094     0.42000
Cu166      Cu  0.24248278  0.37930370  0.69350989     0.43900
N167        N  0.28604424  0.38797167  0.72516310    -0.34700
N168        N  0.27744431  0.39942946  0.71232915    -0.29000
C169        C  0.29649151  0.42441533  0.70977934    -0.05100
C170        C  0.31826127  0.42891185  0.72153361     0.07100
C171        C  0.31080648  0.40538387  0.73132573     0.00900
H172        H  0.29501110  0.43784199  0.69861944     0.08600
H173        H  0.32311192  0.40082918  0.74007460     0.07700
N174        N  0.21331228  0.35785572  0.66688616    -0.36200
N175        N  0.20206073  0.33327371  0.66206142    -0.28400
C176        C  0.18662388  0.32659338  0.64106668    -0.03600
C177        C  0.18845195  0.34810401  0.63229595     0.05000
C178        C  0.20551641  0.36744916  0.64922044     0.03100
H179        H  0.17618727  0.30792757  0.63191709     0.08200
H180        H  0.21275661  0.38742010  0.64806828     0.07000
N181        N  0.76310234  0.65415703  0.69973992    -0.27300
N182        N  0.74805481  0.63862592  0.71867829    -0.35200
C183        C  0.73882970  0.64964700  0.73201041     0.01000
C184        C  0.74806015  0.67312038  0.72087876     0.07000
C185        C  0.76353399  0.67542099  0.70045910    -0.06100
H186        H  0.72317435  0.63953768  0.74582348     0.07700
H187        H  0.77143847  0.68967357  0.68511386     0.08900
Cu188      Cu  0.73057591  0.59961321  0.71876190     0.44200
Cu189      Cu  0.77602117  0.64240124  0.66981481     0.42000
Cu190      Cu  0.73707056  0.57305352  0.66104099     0.43900
N191        N  0.70294953  0.56259814  0.70663393    -0.34700
N192        N  0.70494975  0.55306040  0.68465232    -0.29000
C193        C  0.68216061  0.53115874  0.67902940    -0.05100
C194        C  0.66485255  0.52676035  0.69835740     0.07100
C195        C  0.67883285  0.54699354  0.71566808     0.00900
H196        H  0.67821006  0.52009717  0.66140663     0.08600
H197        H  0.67140296  0.55131146  0.73222200     0.07700
N198        N  0.76898592  0.59864186  0.63878078    -0.36200
N199        N  0.78311940  0.62377973  0.64179210    -0.28400
C200        C  0.80141063  0.63463459  0.62325297    -0.03600
C201        C  0.79866167  0.61537087  0.60797273     0.05000
C202        C  0.77783545  0.59285832  0.61825313     0.03100
H203        H  0.81484327  0.65504030  0.62042921     0.08200
H204        H  0.76935913  0.57368422  0.61096557     0.07000
N205        N  0.93874925  0.66155378  0.43119063    -0.27300
N206        N  0.93838891  0.64690019  0.41273330    -0.35200
C207        C  0.96090286  0.66004292  0.40011532     0.01000
C208        C  0.97632155  0.68413089  0.41114727     0.07000
C209        C  0.96159704  0.68450208  0.43075054    -0.06100
H210        H  0.96633146  0.65198550  0.38526546     0.07700
H211        H  0.96737030  0.69982770  0.44443543     0.08900
Cu212      Cu  0.90995883  0.60838377  0.40805091     0.44200
Cu213      Cu  0.90968788  0.64844650  0.45831929     0.42000
Cu214      Cu  0.86460571  0.57857518  0.45880710     0.43900
N215        N  0.88679227  0.56922138  0.41279013    -0.34700
N216        N  0.87067271  0.55810425  0.43253443    -0.29000
C217        C  0.86348440  0.53389210  0.43471875    -0.05100
C218        C  0.87560272  0.52952886  0.41524497     0.07100
C219        C  0.89015371  0.55238026  0.40170101     0.00900
H220        H  0.85251021  0.52134884  0.45090628     0.08600
H221        H  0.90470620  0.55739867  0.38723811     0.07700
N222        N  0.86275626  0.60291789  0.48361109    -0.36200
N223        N  0.87897632  0.62815021  0.48372908    -0.28400
C224        C  0.87232457  0.63758300  0.50295821    -0.03600
C225        C  0.85067062  0.61729623  0.51514503     0.05000
C226        C  0.84538254  0.59564852  0.50261141     0.03100
H227        H  0.88254506  0.65767016  0.50777613     0.08200
H228        H  0.83062748  0.57594232  0.50749082     0.07000
C229        C  0.90945618  0.46389925  0.41566625     0.03100
C230        C  0.89409986  0.43737829  0.41140096    -0.13100
C231        C  0.90526631  0.42395386  0.41096987     0.00600
C232        C  0.93184484  0.43720420  0.41416092    -0.11600
C233        C  0.94725696  0.46372099  0.41785747     0.03100
C234        C  0.93602536  0.47702491  0.41871259    -0.11000
H235        H  0.87361353  0.42726022  0.40858918     0.08700
H236        H  0.94061214  0.42696275  0.41299716     0.06200
H237        H  0.94797354  0.49761349  0.42135166     0.06000
C238        C  0.46611760  0.54902500  0.70484494     0.03100
C239        C  0.43949140  0.53414696  0.70891817    -0.13100
C240        C  0.42578728  0.50754160  0.71174273     0.00600
C241        C  0.43872053  0.49588538  0.71037043    -0.11600
C242        C  0.46517789  0.51044940  0.70567434     0.03100
C243        C  0.47878445  0.53707433  0.70301446    -0.11000
H244        H  0.42960845  0.54325815  0.71035739     0.08700
H245        H  0.42807911  0.47537078  0.71306413     0.06200
H246        H  0.49933718  0.54859121  0.69991703     0.06000
N247        N  0.66933833  0.73147796  0.74298338    -0.27300
N248        N  0.65654073  0.71838853  0.72180834    -0.35200
C249        C  0.66801532  0.70837566  0.71107371     0.01000
C250        C  0.68887669  0.71501739  0.72638208     0.07000
C251        C  0.68938228  0.73005533  0.74623885    -0.06100
H252        H  0.66064178  0.69584341  0.69422563     0.07700
H253        H  0.70211240  0.73763857  0.76296470     0.08900
Cu254      Cu  0.62063278  0.70849073  0.71154458     0.44200
Cu255      Cu  0.65625512  0.74667073  0.76877826     0.42000
Cu256      Cu  0.58893263  0.72156257  0.75841871     0.43900
N257        N  0.58135968  0.68981974  0.71157341    -0.34700
N258        N  0.56935211  0.69402471  0.72947176    -0.29000
C259        C  0.54414452  0.67505822  0.72841588    -0.05100
C260        C  0.54004179  0.65793437  0.70891135     0.07100
C261        C  0.56420531  0.66815402  0.69864064     0.00900
H262        H  0.53028467  0.67262522  0.74250741     0.08600
H263        H  0.56945330  0.65882619  0.68527259     0.07700
N264        N  0.61163085  0.74647075  0.78836953    -0.36200
N265        N  0.63598627  0.75569887  0.79231225    -0.28400
C266        C  0.64423933  0.77021051  0.81412766    -0.03600
C267        C  0.62400251  0.76978989  0.82454670     0.05000
C268        C  0.60376062  0.75473606  0.80753810     0.03100
H269        H  0.66331905  0.77971880  0.82223413     0.08200
H270        H  0.58459445  0.74998824  0.80897092     0.07000
N271        N  0.66037542  0.89914836  0.01125159    -0.27300
N272        N  0.64444352  0.89859237  0.02818136    -0.35200
C273        C  0.65728352  0.92001607  0.04266757     0.01000
C274        C  0.68252147  0.93512813  0.03438220     0.07000
C275        C  0.68383918  0.92109334  0.01457563    -0.06100
H276        H  0.64829081  0.92539429  0.05638095     0.07700
H277        H  0.70017464  0.92701316  0.00234043     0.08900
Cu278      Cu  0.60496654  0.87341681  0.02636664     0.44200
Cu279      Cu  0.64845437  0.87261370  0.98112545     0.42000
Cu280      Cu  0.58036279  0.83722681  0.96748655     0.43900
N281        N  0.56831967  0.85801742  0.01282261    -0.34700
N282        N  0.55963003  0.84560085  0.99039892    -0.29000
C283        C  0.53773431  0.84280913  0.98413017    -0.05100
C284        C  0.53243789  0.85418630  0.00356373     0.07100
C285        C  0.55213010  0.86336833  0.02154955     0.00900
H286        H  0.52732028  0.83435269  0.96607736     0.08600
H287        H  0.55575293  0.87525577  0.03840213     0.07700
N288        N  0.60522961  0.83313504  0.94637854    -0.36200
N289        N  0.63008956  0.84596071  0.95100027    -0.28400
C290        C  0.64050823  0.83912515  0.93307536    -0.03600
C291        C  0.62121780  0.82117481  0.91636439     0.05000
C292        C  0.59914324  0.81783044  0.92558580     0.03100
H293        H  0.66057773  0.84653892  0.93250270     0.08200
H294        H  0.58004093  0.80553031  0.91746623     0.07000
N295        N  0.89747317  0.23341206  0.36832675    -0.27300
N296        N  0.90060852  0.24867802  0.38763497    -0.35200
C297        C  0.92119537  0.25502481  0.40175118     0.01000
C298        C  0.93183720  0.24353497  0.39065095     0.07000
C299        C  0.91612337  0.22971967  0.36958177    -0.06100
H300        H  0.92958237  0.26936523  0.41703917     0.07700
H301        H  0.91915277  0.21950522  0.35499778     0.08900
Cu302      Cu  0.88170257  0.26600078  0.38973517     0.44200
Cu303      Cu  0.87158592  0.22339518  0.33827834     0.42000
Cu304      Cu  0.84031318  0.25657080  0.33618307     0.43900
N305        N  0.86735272  0.28745770  0.38453352    -0.34700
N306        N  0.85222444  0.28422121  0.36497735    -0.29000
C307        C  0.84910370  0.30326406  0.36547346    -0.05100
C308        C  0.86327045  0.31948445  0.38618668     0.07100
C309        C  0.87434952  0.30861209  0.39788458     0.00900
H310        H  0.83825172  0.30563255  0.35106848     0.08600
H311        H  0.88808925  0.31655732  0.41376651     0.07700
N312        N  0.83534318  0.23051412  0.30815581    -0.36200
N313        N  0.84678007  0.21872678  0.30907111    -0.28400
C314        C  0.84002742  0.20367959  0.28792111    -0.03600
C315        C  0.82330740  0.20580099  0.27295182     0.05000
C316        C  0.82097751  0.22319950  0.28628602     0.03100
H317        H  0.84728235  0.19245395  0.28360461     0.08200
H318        H  0.80954240  0.22992812  0.28062386     0.07000
N319        N  0.75024623  0.07593028  0.08386434    -0.27300
N320        N  0.73914483  0.07538567  0.06180650    -0.35200
C321        C  0.73323142  0.05499444  0.04766056     0.01000
C322        C  0.74039689  0.04159693  0.06157913     0.07000
C323        C  0.75139360  0.05560024  0.08440591    -0.06100
H324        H  0.72159512  0.04857283  0.03012074     0.07700
H325        H  0.75759537  0.05017594  0.10115567     0.08900
Cu326      Cu  0.72503791  0.09691530  0.05514388     0.44200
Cu327      Cu  0.75851256  0.10151716  0.11398316     0.42000
Cu328      Cu  0.73019664  0.13720851  0.10691037     0.43900
N329        N  0.70491491  0.11310951  0.05561447    -0.34700
N330        N  0.70699574  0.12818245  0.07457605    -0.29000
C331        C  0.68936771  0.13301231  0.07102405    -0.05100
C332        C  0.67493230  0.11979880  0.04899590     0.07100
C333        C  0.68567601  0.10766114  0.03963518     0.00900
H334        H  0.68668446  0.14435151  0.08435810     0.08600
H335        H  0.67868671  0.09414221  0.02362770     0.07700
N336        N  0.75306185  0.14137390  0.13796132    -0.36200
N337        N  0.76346526  0.12869040  0.14053770    -0.28400
C338        C  0.77749488  0.13646537  0.16262397    -0.03600
C339        C  0.77597638  0.15502337  0.17448144     0.05000
C340        C  0.76007026  0.15739502  0.15833465     0.03100
H341        H  0.78825897  0.12930480  0.16937897     0.08200
H342        H  0.75364229  0.16954508  0.16122415     0.07000
C343        C  0.79230439  0.15587788  0.21886902    -0.26400
C344        C  0.78818208  0.16859585  0.19945338    -0.14400
C345        C  0.79574737  0.19382518  0.20430373     0.36200
C346        C  0.80672338  0.20540398  0.22861823    -0.25800
C347        C  0.81095102  0.19263902  0.24790850    -0.15100
C348        C  0.80348103  0.16756002  0.24291888     0.37300
N349        N  0.80639874  0.15345597  0.26251140    -0.89300
H350        H  0.78635770  0.13645568  0.21564234     0.18400
H351        H  0.81266574  0.22477444  0.23223302     0.18400
N352        N  0.79298843  0.20790728  0.18439351    -0.88300
H353        H  0.81778792  0.14813042  0.25474632     0.35800
H354        H  0.78830738  0.13677949  0.26656814     0.40800
H355        H  0.80502575  0.21076440  0.16887010     0.40500
H356        H  0.79932390  0.22606539  0.19119040     0.35400
C357        C  0.70147442  0.96948907  0.06785938    -0.26400
C358        C  0.70149992  0.96231766  0.04189495    -0.14400
C359        C  0.71726383  0.98152604  0.02328215     0.36200
C360        C  0.73154173  0.00740257  0.03086009    -0.25800
C361        C  0.73015146  0.01452805  0.05641732    -0.15100
C362        C  0.71541149  0.99533472  0.07530842     0.37300
N363        N  0.71328227  0.00203924  0.10153947    -0.89300
H364        H  0.68947713  0.95481460  0.08217679     0.18400
H365        H  0.74271899  0.02219629  0.01636599     0.18400
N366        N  0.71755899  0.97496074  0.99645258    -0.88300
H367        H  0.70202655  0.98564984  0.11304713     0.35800
H368        H  0.70352539  0.01063014  0.10057890     0.40800
H369        H  0.73055142  0.99130733  0.98552836     0.40500
H370        H  0.69941022  0.96744701  0.98857765     0.35400
C371        C  0.64503433  0.80710306  0.85504105    -0.26400
C372        C  0.62377376  0.78233928  0.84880022    -0.14400
C373        C  0.60228960  0.77010295  0.86551567     0.36200
C374        C  0.60205353  0.78303112  0.88750509    -0.25800
C375        C  0.62303263  0.80803850  0.89347880    -0.15100
C376        C  0.64475514  0.82011596  0.87704483     0.37300
N377        N  0.66612608  0.84593599  0.88190853    -0.89300
H378        H  0.66163202  0.81675961  0.84230585     0.18400
H379        H  0.58536360  0.77326506  0.90011054     0.18400
N380        N  0.58089854  0.74426657  0.86066517    -0.88300
H381        H  0.66869576  0.85691608  0.86548505     0.35800
H382        H  0.68248254  0.84612116  0.88405667     0.40800
H383        H  0.56448856  0.74403114  0.85877517     0.40500
H384        H  0.57848874  0.73325302  0.87699582     0.35400
C385        C  0.49496836  0.59065538  0.68185688    -0.26400
C386        C  0.48137703  0.57725443  0.70446467    -0.14400
C387        C  0.48457822  0.59089824  0.72742915     0.36200
C388        C  0.50244284  0.61756482  0.72798835    -0.25800
C389        C  0.51745851  0.63093846  0.70592474    -0.15100
C390        C  0.51265630  0.61740443  0.68229413     0.37300
N391        N  0.52578099  0.63071451  0.65875965    -0.89300
H392        H  0.49227926  0.58025084  0.66398604     0.18400
H393        H  0.50565558  0.62747739  0.74632047     0.18400
N394        N  0.47082969  0.57752426  0.75070012    -0.88300
H395        H  0.51202344  0.62678993  0.64475404     0.35800
H396        H  0.53567620  0.62334401  0.65190003     0.40800
H397        H  0.46034195  0.58451751  0.75665751     0.40500
H398        H  0.48418457  0.58178560  0.76534538     0.35400
C399        C  0.88251808  0.38772250  0.37987295    -0.26400
C400        C  0.88979347  0.39625793  0.40568473    -0.14400
C401        C  0.88515177  0.37882315  0.42548741     0.36200
C402        C  0.87490131  0.35337995  0.41872518    -0.25800
C403        C  0.86944134  0.34510903  0.39253981    -0.15100
C404        C  0.87254755  0.36233373  0.37295829     0.37300
N405        N  0.86710093  0.35461658  0.34598790    -0.89300
H406        H  0.88616242  0.40135503  0.36481101     0.18400
H407        H  0.87198874  0.34013527  0.43389345     0.18400
N408        N  0.89103650  0.38708257  0.45231331    -0.88300
H409        H  0.88048932  0.35131080  0.33969350     0.35800
H410        H  0.86981863  0.36941070  0.33433539     0.40800
H411        H  0.91093137  0.40001756  0.45400798     0.40500
H412        H  0.88569824  0.37169027  0.46456006     0.35400
C413        C  0.88726650  0.50412653  0.43897435    -0.26400
C414        C  0.88032966  0.50955597  0.41520338    -0.14400
C415        C  0.88120724  0.49820652  0.39180865     0.36200
C416        C  0.89020242  0.48282209  0.39274316    -0.25800
C417        C  0.89801026  0.47825379  0.41638508    -0.15100
C418        C  0.89622070  0.48876462  0.43988587     0.37300
N419        N  0.90334531  0.48441061  0.46493181    -0.89300
H420        H  0.88681217  0.51281334  0.45696785     0.18400
H421        H  0.89156266  0.47472274  0.37473959     0.18400
N422        N  0.87333677  0.50190002  0.36687134    -0.88300
H423        H  0.91937347  0.50192668  0.47157860     0.35800
H424        H  0.90866552  0.47183302  0.46369682     0.40800
H425        H  0.86541652  0.51218695  0.36872684     0.40500
H426        H  0.85850822  0.48387340  0.35986697     0.35400
C427        C  0.70824058  0.66989656  0.71500383    -0.26400
C428        C  0.73423249  0.68517273  0.72191947    -0.14400
C429        C  0.74548687  0.71050619  0.73070629     0.36200
C430        C  0.73042175  0.71998782  0.73169599    -0.25800
C431        C  0.70436448  0.70462235  0.72459271    -0.15100
C432        C  0.69316533  0.67911716  0.71673335     0.37300
N433        N  0.66620280  0.66198670  0.71175136    -0.89300
H434        H  0.69933829  0.65030047  0.70872622     0.18400
H435        H  0.73912257  0.73946675  0.73820563     0.18400
N436        N  0.77173526  0.72688276  0.73919453    -0.88300
H437        H  0.65849291  0.64655506  0.72466386     0.35800
H438        H  0.66366466  0.65493685  0.69268710     0.40800
H439        H  0.78091265  0.71777022  0.73780286     0.40500
H440        H  0.77164415  0.73079130  0.75905324     0.35400
C441        C  0.79836462  0.60470077  0.56149727    -0.26400
C442        C  0.81264343  0.61788079  0.58391465    -0.14400
C443        C  0.83966708  0.63201017  0.58313902     0.36200
C444        C  0.85170905  0.63212052  0.56023342    -0.25800
C445        C  0.83731223  0.61820463  0.53811140    -0.15100
C446        C  0.81035746  0.60485328  0.53862406     0.37300
N447        N  0.79472859  0.59202140  0.51604039    -0.89300
H448        H  0.77765658  0.59415251  0.56177541     0.18400
H449        H  0.87239506  0.64246959  0.55999281     0.18400
N450        N  0.85524553  0.64533472  0.60559144    -0.88300
H451        H  0.79570168  0.57682266  0.51111503     0.35800
H452        H  0.80179316  0.60499187  0.50047712     0.40800
H453        H  0.84895607  0.63240803  0.62110722     0.40500
H454        H  0.85298605  0.65969794  0.61068658     0.35400
C455        C  0.36115171  0.45873213  0.74144456    -0.26400
C456        C  0.34497528  0.45204256  0.71974346    -0.14400
C457        C  0.35519074  0.46600514  0.69616021     0.36200
C458        C  0.38154314  0.48574329  0.69465063    -0.25800
C459        C  0.39780820  0.49127488  0.71592145    -0.15100
C460        C  0.38748737  0.47824529  0.73976579     0.37300
N461        N  0.40403978  0.48432173  0.76183960    -0.89300
H462        H  0.35330579  0.44816170  0.75955373     0.18400
H463        H  0.38974039  0.49568789  0.67629579     0.18400
N464        N  0.33925197  0.45910129  0.67337412    -0.88300
H465        H  0.39351310  0.47282719  0.77786622     0.35800
H466        H  0.41172237  0.50318924  0.76728824     0.40800
H467        H  0.33350233  0.44085988  0.66753870     0.40500
H468        H  0.34973763  0.47140475  0.65779869     0.35400
C469        C  0.00341432  0.27811550  0.38399308    -0.26400
C470        C  0.01048472  0.27902823  0.41020447    -0.14400
C471        C  0.99108326  0.26466728  0.42906762     0.36200
C472        C  0.96523184  0.25121542  0.42165651    -0.25800
C473        C  0.95829922  0.25178126  0.39577259    -0.15100
C474        C  0.97770250  0.26482577  0.37659994     0.37300
N475        N  0.97210540  0.26651595  0.34985907    -0.89300
H476        H  0.01805706  0.28887069  0.36923779     0.18400
H477        H  0.95050597  0.24150001  0.43654014     0.18400
N478        N  0.99735063  0.26503901  0.45603993    -0.88300
H479        H  0.96158149  0.27430696  0.34919377     0.35800
H480        H  0.96120381  0.24813789  0.34186261     0.40800
H481        H  0.98913852  0.24618000  0.46192757     0.40500
H482        H  0.98898469  0.27217374  0.46700711     0.35400
C483        C  0.14382807  0.33603929  0.57589413    -0.26400
C484        C  0.15877050  0.35908666  0.56180886    -0.14400
C485        C  0.18358180  0.37826065  0.57100801     0.36200
C486        C  0.19276653  0.37420780  0.59395941    -0.25800
C487        C  0.17780701  0.35123400  0.60804823    -0.15100
C488        C  0.15306386  0.33203512  0.59890678     0.37300
N489        N  0.13688644  0.30882560  0.61338118    -0.89300
H490        H  0.12461558  0.32116737  0.56937213     0.18400
H491        H  0.21198807  0.38905795  0.60049908     0.18400
N492        N  0.19991185  0.40161618  0.55680441    -0.88300
H493        H  0.13169772  0.29349461  0.60107478     0.35800
H494        H  0.12020706  0.30727577  0.61844674     0.40800
H495        H  0.21664707  0.40324211  0.55181418     0.40500
H496        H  0.20496600  0.41682229  0.56924346     0.35400
C497        C  0.60883928  0.10694154  0.04851975    -0.26400
C498        C  0.60085744  0.09806687  0.02293415    -0.14400
C499        C  0.61826705  0.09924309  0.00505273     0.36200
C500        C  0.64292547  0.10787011  0.01366925    -0.25800
C501        C  0.65043393  0.11510155  0.03988538    -0.15100
C502        C  0.63324281  0.11513442  0.05726335     0.37300
N503        N  0.63959199  0.12174307  0.08426152    -0.89300
H504        H  0.59539578  0.10580971  0.06237991     0.18400
H505        H  0.65604590  0.10818215  0.00001643     0.18400
N506        N  0.61050745  0.09093091  0.97847589    -0.88300
H507        H  0.62605633  0.10598864  0.09559552     0.35800
H508        H  0.63813997  0.13681686  0.08850009     0.40800
H509        H  0.62547932  0.09281875  0.96784984     0.40500
H510        H  0.60677131  0.10322751  0.96981149     0.35400
C511        C  0.04847674  0.72955473  0.41893154    -0.26400
C512        C  0.05637738  0.73082448  0.39303996    -0.14400
C513        C  0.03788914  0.71946912  0.37283133     0.36200
C514        C  0.01182935  0.70586033  0.37926704    -0.25800
C515        C  0.00382726  0.70300348  0.40536487    -0.15100
C516        C  0.02235427  0.71564187  0.42540212     0.37300
N517        N  0.01471831  0.71303007  0.45232861    -0.89300
H518        H  0.06275079  0.73824463  0.43435364     0.18400
H519        H  0.99756742  0.69626570  0.36391839     0.18400
N520        N  0.04538232  0.72028565  0.34611408    -0.88300
H521        H  0.03074970  0.72391526  0.46446283     0.35800
H522        H  0.00589261  0.69391507  0.45764447     0.40800
H523        H  0.02943380  0.71144566  0.33371726     0.40500
H524        H  0.05283993  0.70948394  0.34490136     0.35400
C525        C  0.19548885  0.76961253  0.22230718    -0.26400
C526        C  0.19749413  0.78550455  0.24248334    -0.14400
C527        C  0.20925870  0.81174906  0.23730090     0.36200
C528        C  0.21872971  0.82140198  0.21228887    -0.25800
C529        C  0.21685190  0.80556921  0.19206695    -0.15100
C530        C  0.20478883  0.77922921  0.19720099     0.37300
N531        N  0.20060505  0.76150585  0.17723090    -0.89300
H532        H  0.18622478  0.74940869  0.22597679     0.18400
H533        H  0.22796649  0.84161783  0.20874888     0.18400
N534        N  0.21286768  0.82933269  0.25717403    -0.88300
H535        H  0.21820720  0.76564923  0.17126639     0.35800
H536        H  0.19147118  0.76333614  0.16133973     0.40800
H537        H  0.22222161  0.82789210  0.27313357     0.40500
H538        H  0.19506207  0.82463300  0.26314473     0.35400
C539        C  0.25530425  0.22579996  0.70608773    -0.26400
C540        C  0.26330260  0.22388467  0.73099483    -0.14400
C541        C  0.25747928  0.23298146  0.75290176     0.36200
C542        C  0.24616496  0.24606026  0.74922650    -0.25800
C543        C  0.24046770  0.25022908  0.72404384    -0.15100
C544        C  0.24388908  0.23873667  0.70235772     0.37300
N545        N  0.23789519  0.24148024  0.67614843    -0.89300
H546        H  0.25959559  0.21873138  0.68913355     0.18400
H547        H  0.24346787  0.25456986  0.76604943     0.18400
N548        N  0.26498140  0.23098130  0.77866675    -0.88300
H549        H  0.24789674  0.26094470  0.67175018     0.35800
H550        H  0.21821123  0.23288433  0.67491930     0.40800
H551        H  0.24859711  0.22125015  0.79041926     0.40500
H552        H  0.27750319  0.24945750  0.78621963     0.35400
C553        C  0.51187675  0.12509538  0.00826956    -0.26400
C554        C  0.48863057  0.11165866  0.02218690    -0.14400
C555        C  0.48101233  0.08864748  0.03508113     0.36200
C556        C  0.49648092  0.07983807  0.03367023    -0.25800
C557        C  0.51927190  0.09280663  0.01912610    -0.15100
C558        C  0.52717685  0.11587579  0.00642267     0.37300
N559        N  0.55013432  0.12934941  0.99088066    -0.89300
H560        H  0.51778331  0.14255079  0.99812998     0.18400
H561        H  0.49024122  0.06221937  0.04367637     0.18400
N562        N  0.45703802  0.07276837  0.04845303    -0.88300
H563        H  0.55321757  0.14592171  0.98285351     0.35800
H564        H  0.54734458  0.11754533  0.97516077     0.40800
H565        H  0.44218805  0.06899077  0.03608090     0.40500
H566        H  0.45745182  0.08203859  0.06540747     0.35400
C567        C  0.27691748  0.97887640  0.06420841    -0.26400
C568        C  0.29103082  0.96842022  0.06365024    -0.14400
C569        C  0.31802486  0.98478621  0.06228589     0.36200
C570        C  0.33026825  0.01119989  0.05998428    -0.25800
C571        C  0.31617032  0.02168051  0.05917577    -0.15100
C572        C  0.28921196  0.00533657  0.06180560     0.37300
N573        N  0.27395926  0.01508709  0.06250165    -0.89300
H574        H  0.25621175  0.96636125  0.06580227     0.18400
H575        H  0.35094062  0.02359526  0.05803339     0.18400
N576        N  0.33290949  0.97451468  0.06325144    -0.88300
H577        H  0.27602981  0.02419592  0.04477405     0.35800
H578        H  0.28081376  0.02858677  0.07755590     0.40800
H579        H  0.33005467  0.96611492  0.08164980     0.40500
H580        H  0.35249023  0.98912334  0.06185130     0.35400
C581        C  0.38760833  0.15223921  0.87405199    -0.26400
C582        C  0.37690809  0.15409848  0.89714109    -0.14400
C583        C  0.36325857  0.16527010  0.89615013     0.36200
C584        C  0.36028318  0.17383372  0.87223264    -0.25800
C585        C  0.37118308  0.17218408  0.84922899    -0.15100
C586        C  0.38496693  0.16118957  0.85019928     0.37300
N587        N  0.39590328  0.15824080  0.82726870    -0.89300
H588        H  0.39810815  0.14372259  0.87454518     0.18400
H589        H  0.35005558  0.18263890  0.87178170     0.18400
N590        N  0.35352052  0.16959599  0.91918520    -0.88300
H591        H  0.41000375  0.17625951  0.81987298     0.35800
H592        H  0.38144834  0.14817579  0.81319562     0.40800
H593        H  0.36845099  0.17985145  0.93266662     0.40500
H594        H  0.33915215  0.15199558  0.92730302     0.35400
C595        C  0.01518848  0.49184693  0.44018637    -0.26400
C596        C  0.02902007  0.50479812  0.41745078    -0.14400
C597        C  0.01579834  0.50401273  0.39498850     0.36200
C598        C  0.98909063  0.49064376  0.39567555    -0.25800
C599        C  0.97532981  0.47783337  0.41838167    -0.15100
C600        C  0.98848016  0.47844797  0.44086613     0.37300
N601        N  0.97519034  0.46596996  0.46462966    -0.89300
H602        H  0.02524053  0.49236144  0.45753108     0.18400
H603        H  0.97899028  0.48998268  0.37829952     0.18400
N604        N  0.02938863  0.51618535  0.37125167    -0.88300
H605        H  0.96200271  0.44645455  0.46079433     0.35800
H606        H  0.96505286  0.47337798  0.47049452     0.40800
H607        H  0.02563751  0.52946246  0.36592559     0.40500
H608        H  0.02209177  0.50225391  0.35658487     0.35400
C609        C  0.11718977  0.49976220  0.40427992    -0.26400
C610        C  0.10554678  0.50325295  0.42541260    -0.14400
C611        C  0.10209865  0.49055743  0.44926100     0.36200
C612        C  0.11008902  0.47430408  0.45135983    -0.25800
C613        C  0.12078725  0.46996428  0.42987847    -0.15100
C614        C  0.12446197  0.48300286  0.40611768     0.37300
N615        N  0.13567229  0.47978089  0.38361629    -0.89300
H616        H  0.11965400  0.50931609  0.38585463     0.18400
H617        H  0.10705567  0.46421806  0.46954325     0.18400
N618        N  0.09001171  0.49383228  0.47101639    -0.88300
H619        H  0.12375719  0.46083860  0.37729886     0.35800
H620        H  0.15341830  0.48376135  0.38900187     0.40800
H621        H  0.10190234  0.51300680  0.47678709     0.40500
H622        H  0.08863481  0.48293980  0.48701825     0.35400
C623        C  0.12804084  0.61914898  0.37093408    -0.26400
C624        C  0.14116753  0.63738743  0.39085478    -0.14400
C625        C  0.14277347  0.62921924  0.41609303     0.36200
C626        C  0.13002311  0.60297318  0.42097822    -0.25800
C627        C  0.11578660  0.58470982  0.40138680    -0.15100
C628        C  0.11512513  0.59294283  0.37588459     0.37300
N629        N  0.10138849  0.57538841  0.35464284    -0.89300
H630        H  0.12671306  0.62520636  0.35157181     0.18400
H631        H  0.13054235  0.59671963  0.44052924     0.18400
N632        N  0.15681836  0.64680485  0.43723984    -0.88300
H633        H  0.08618702  0.57645058  0.34962157     0.35800
H634        H  0.09345017  0.55648464  0.35999625     0.40800
H635        H  0.16664025  0.66577931  0.43111357     0.40500
H636        H  0.17095733  0.64440143  0.44310804     0.35400
C637        C  0.50062657  0.50729795  0.71969701    -0.26400
C638        C  0.47869572  0.49792150  0.70428171    -0.14400
C639        C  0.46978518  0.47653685  0.68801565     0.36200
C640        C  0.48271174  0.46484100  0.68758741    -0.25800
C641        C  0.50446138  0.47400558  0.70322099    -0.15100
C642        C  0.51344141  0.49545171  0.71943500     0.37300
N643        N  0.53496402  0.50467577  0.73639336    -0.89300
H644        H  0.50747532  0.52351451  0.73253429     0.18400
H645        H  0.47567853  0.44845697  0.67494357     0.18400
N646        N  0.44782747  0.46685638  0.67158847    -0.88300
H647        H  0.52898588  0.50379848  0.75565412     0.35800
H648        H  0.54887838  0.52387101  0.73183836     0.40800
H649        H  0.43418179  0.44768948  0.67648853     0.40500
H650        H  0.45339139  0.46752750  0.65219127     0.35400
C651        C  0.45914749  0.34982310  0.69823688    -0.26400
C652        C  0.45927204  0.33916174  0.72221989    -0.14400
C653        C  0.47815196  0.35519719  0.74104822     0.36200
C654        C  0.49631882  0.38129693  0.73551765    -0.25800
C655        C  0.49541733  0.39186964  0.71190398    -0.15100
C656        C  0.47671823  0.37596703  0.69314221     0.37300
N657        N  0.47530344  0.38644444  0.66899773    -0.89300
H658        H  0.44498545  0.33792467  0.68343546     0.18400
H659        H  0.51035490  0.39361037  0.75026387     0.18400
N660        N  0.47812051  0.34556665  0.76632820    -0.88300
H661        H  0.45710091  0.38268285  0.66770131     0.35800
H662        H  0.47718097  0.37686832  0.65363248     0.40800
H663        H  0.47593467  0.35600681  0.78040131     0.40500
H664        H  0.49600504  0.34889782  0.76922763     0.35400
C665        C  0.59496300  0.48434903  0.67702147    -0.26400
C666        C  0.58263147  0.47418783  0.70106238    -0.14400
C667        C  0.59745005  0.48023125  0.72395719     0.36200
C668        C  0.62420874  0.49692571  0.72253219    -0.25800
C669        C  0.63665961  0.50751039  0.69854740    -0.15100
C670        C  0.62181040  0.50084523  0.67553226     0.37300
N671        N  0.63374989  0.51173980  0.65081448    -0.89300
H672        H  0.58365591  0.48000908  0.65942468     0.18400
H673        H  0.63535140  0.50188888  0.74034848     0.18400
N674        N  0.58573534  0.47029211  0.74898561    -0.88300
H675        H  0.62656930  0.52166644  0.64351313     0.35800
H676        H  0.62843085  0.49677097  0.63790959     0.40800
H677        H  0.57484369  0.45033274  0.74816150     0.40500
H678        H  0.57341165  0.47568244  0.75273580     0.35400
C679        C  0.48589546  0.97352478  0.98721356    -0.26400
C680        C  0.49054296  0.96080078  0.00614190    -0.14400
C681        C  0.50923527  0.97506785  0.02561284     0.36200
C682        C  0.52305154  0.00183467  0.02562245    -0.25800
C683        C  0.51830780  0.01462792  0.00684613    -0.15100
C684        C  0.49968330  0.00035667  0.98728931     0.37300
N685        N  0.49495587  0.01315018  0.96758305    -0.89300
H686        H  0.47142798  0.96242732  0.97236754     0.18400
H687        H  0.53712479  0.01278344  0.04083856     0.18400
N688        N  0.51356204  0.96227498  0.04572856    -0.88300
H689        H  0.48064152  0.99986847  0.95468337     0.35800
H690        H  0.51170684  0.02441870  0.95655207     0.40800
H691        H  0.49675864  0.95141641  0.05678206     0.40500
H692        H  0.52795552  0.97555918  0.05855262     0.35400
C693        C  0.36339968  0.86802704  0.00850947    -0.26400
C694        C  0.35561689  0.86109275  0.03468001    -0.14400
C695        C  0.37296071  0.86237997  0.05300130     0.36200
C696        C  0.39760862  0.87080526  0.04473267    -0.32700
C697        C  0.40554687  0.87881686  0.01895534    -0.15100
C698        C  0.38826163  0.87700224  0.00050315     0.37300
N699        N  0.39631530  0.88489696  0.97391523    -0.89300
H700        H  0.35020828  0.86699355  0.99436154     0.18400
H701        H  0.41128036  0.87268824  0.05882588     0.18400
N702        N  0.36624404  0.85673198  0.08017882    -0.88300
H703        H  0.38136109  0.88256974  0.96279912     0.35800
H704        H  0.40040351  0.87264101  0.96588095     0.40800
H705        H  0.36434487  0.87076420  0.08759741     0.40500
H706        H  0.38103109  0.85823956  0.09080454     0.35400
C707        C  0.50340632  0.86138513  0.02742890    -0.26400
C708        C  0.51329928  0.86016042  0.00339797    -0.14400
C709        C  0.50694441  0.86743109  0.98027478     0.36200
C710        C  0.49168171  0.87657101  0.98177861    -0.25800
C711        C  0.48292619  0.87887390  0.00595465    -0.15100
C712        C  0.48838990  0.87078976  0.02887312     0.37300
N713        N  0.47973960  0.87327186  0.05375255    -0.89300
H714        H  0.50810797  0.85586754  0.04532142     0.18400
H715        H  0.48760825  0.88299317  0.96412581     0.18400
N716        N  0.51727026  0.86725396  0.95549198    -0.88300
H717        H  0.49583193  0.88509547  0.06555740     0.35800
H718        H  0.46870320  0.85517397  0.06242615     0.40800
H719        H  0.52794188  0.88587813  0.94804826     0.40500
H720        H  0.50196060  0.85563998  0.94271921     0.35400
loop_ 
_geom_bond_atom_site_label_1 
_geom_bond_atom_site_label_2 
_geom_bond_distance 
_geom_bond_site_symmetry_2 
_ccdc_geom_bond_type 
C1            C2   1.404       .  A
C1            C6   1.401       .  A
C1          C711   1.471       .  S
C2            C3   1.402       .  A
C2            H7   1.084       .  S
C3            C4   1.400       .  A
C3          C680   1.479       .  S
C4            C5   1.401       .  A
C4            H8   1.084       .  S
C5            C6   1.401       .  A
C5          C697   1.471       .  S
C6            H9   1.084       .  S
C10          C11   1.404       .  A
C10          C15   1.403       .  A
C10         C666   1.476       .  S
C11          C12   1.403       .  A
C11          H16   1.084       .  S
C12          C13   1.401       .  A
C12         C655   1.477       .  S
C13          C14   1.402       .  A
C13          H17   1.084       .  S
C14          C15   1.404       .  A
C14         C641   1.484       .  S
C15          H18   1.084       .  S
C19          C20   1.402       .  A
C19          C24   1.406       .  A
C19         C610   1.479       .  S
C20          C21   1.400       .  A
C20          H25   1.084       .  S
C21          C22   1.401       .  A
C21         C596   1.477       .  S
C22          C23   1.402       .  A
C22          H26   1.084       .  S
C23          C24   1.405       .  A
C23         C627   1.478       .  S
C24          H27   1.084       .  S
N28          N29   1.320       .  A
N28          C32   1.344       .  A
N28         Cu36   2.066   1_554  S
N29          C30   1.342       .  A
N29         Cu35   2.069       .  S
C30          C31   1.386       .  A
C30          H33   1.082       .  S
C31          C32   1.385       .  A
C31         C571   1.478       .  S
C32          H34   1.082       .  S
Cu35         N38   2.069       .  S
Cu36         N46   2.066       .  S
Cu37         N39   2.078   1_556  S
Cu37         N45   2.078       .  S
N38          N39   1.320       .  A
N38          C42   1.343       .  A
N39          C40   1.346   1_554  A
C40          C41   1.389   1_556  A
C40          H43   1.082       .  S
C41          C42   1.387       .  A
C41         C554   1.491       .  S
C42          H44   1.078       .  S
N45          N46   1.322       .  A
N45          C49   1.344       .  A
N46          C47   1.344       .  A
C47          C48   1.383       .  A
C47          H50   1.081       .  S
C48          C49   1.385       .  A
C48         C582   1.478       .  S
C49          H51   1.082       .  S
N52          N53   1.320       .  A
N52          C56   1.347       .  A
N52         Cu60   2.075       .  S
N53          C54   1.340       .  A
N53         Cu59   2.064       .  S
C54          C55   1.382       .  A
C54          H57   1.082       .  S
C55          C56   1.388       .  A
C55         C540   1.478       .  S
C56          H58   1.082       .  S
Cu59         N62   2.066       .  S
Cu60         N70   2.076       .  S
Cu61         N63   2.070       .  S
Cu61         N69   2.071       .  S
N62          N63   1.319       .  A
N62          C66   1.341       .  A
N63          C64   1.347       .  A
C64          C65   1.390       .  A
C64          H67   1.081       .  S
C65          C66   1.386       .  A
C65         C652   1.487       .  S
C66          H68   1.082       .  S
N69          N70   1.323       .  A
N69          C73   1.343       .  A
N70          C71   1.344       .  A
C71          C72   1.384       .  A
C71          H74   1.082       .  S
C72          C73   1.382       .  A
C72         C585   1.475       .  S
C73          H75   1.081       .  S
N76          N77   1.320       .  A
N76          C80   1.344       .  A
N76         Cu84   2.056       .  S
N77          C78   1.342       .  A
N77         Cu83   2.069       .  S
C78          C79   1.384       .  A
C78          H81   1.082       .  S
C79          C80   1.384       .  A
C79         C512   1.476       .  S
C80          H82   1.082       .  S
Cu83         N86   2.070       .  S
Cu84         N94   2.057       .  S
Cu85         N87   2.082       .  S
Cu85         N93   2.082       .  S
N86          N87   1.322       .  A
N86          C90   1.344       .  A
N87          C88   1.347       .  A
C88          C89   1.386       .  A
C88          H91   1.082       .  S
C89          C90   1.383       .  A
C89         C624   1.479       .  S
C90          H92   1.082       .  S
N93          N94   1.322       .  A
N93          C97   1.346       .  A
N94          C95   1.341       .  A
C95          C96   1.380       .  A
C95          H98   1.080       .  S
C96          C97   1.386       .  A
C96         C526   1.476       .  S
C97          H99   1.082       .  S
N100        N101   1.321       .  A
N100        C104   1.347       .  A
N100       Cu108   2.071       .  S
N101        C102   1.340       .  A
N101       Cu107   2.060       .  S
C102        C103   1.381       .  A
C102        H105   1.082       .  S
C103        C104   1.384       .  A
C103        C568   1.474       .  S
C104        H106   1.082       .  S
Cu107       N110   2.060       .  S
Cu108       N118   2.073       .  S
Cu109       N111   2.070       .  S
Cu109       N117   2.072       .  S
N110        N111   1.320       .  A
N110        C114   1.341       .  A
N111        C112   1.345       .  A
C112        C113   1.389       .  A
C112        H115   1.081       .  S
C113        C114   1.384       .  A
C113        C694   1.484       .  S
C114        H116   1.082       .  S
N117        N118   1.323       .  A
N117        C121   1.344       .  A
N118        C119   1.343       .  A
C119        C120   1.385       .  A
C119        H122   1.082       .  S
C120        C121   1.385       .  A
C120        C529   1.481       .  S
C121        H123   1.079       .  S
C124        C125   1.408       .  A
C124        C129   1.410       .  A
C124        C557   1.491       .  S
C125        C126   1.404       .  A
C125        H130   1.083       .  S
C126        C127   1.400       .  A
C126        C498   1.477       .  S
C127        C128   1.399       .  A
C127        H131   1.084       .  S
C128        C129   1.403       .  A
C128        C683   1.484       .  S
C129        H132   1.083       .  S
N133        N134   1.320       .  A
N133        C137   1.346       .  A
N133       Cu141   2.066       .  S
N134        C135   1.341       .  A
N134       Cu140   2.065       .  S
C135        C136   1.385       .  A
C135        H138   1.082       .  S
C136        C137   1.388       .  A
C136        C470   1.484       .  S
C137        H139   1.081       .  S
Cu140       N143   2.065       .  S
Cu141       N151   2.067       .  S
Cu142       N144   2.081       .  S
Cu142       N150   2.082       .  S
N143        N144   1.321       .  A
N143        C147   1.343       .  A
N144        C145   1.346       .  A
C145        C146   1.387       .  A
C145        H148   1.082       .  S
C146        C147   1.383       .  A
C146        C613   1.480       .  S
C147        H149   1.081       .  S
N150        N151   1.322       .  A
N150        C154   1.345       .  A
N151        C152   1.343       .  A
C152        C153   1.384       .  A
C152        H155   1.082       .  S
C153        C154   1.389       .  A
C153        C484   1.486       .  S
C154        H156   1.081       .  S
N157        N158   1.323       .  A
N157        C161   1.348       .  A
N157       Cu165   2.086       .  S
N158        C159   1.341       .  A
N158       Cu164   2.070       .  S
C159        C160   1.382       .  A
C159        H162   1.082       .  S
C160        C161   1.388       .  A
C160        C543   1.482       .  S
C161        H163   1.080       .  S
Cu164       N167   2.069       .  S
Cu165       N175   2.086       .  S
Cu166       N168   2.061       .  S
Cu166       N174   2.061       .  S
N167        N168   1.319       .  A
N167        C171   1.344       .  A
N168        C169   1.344       .  A
C169        C170   1.385       .  A
C169        H172   1.082       .  S
C170        C171   1.386       .  A
C170        C456   1.481       .  S
C171        H173   1.082       .  S
N174        N175   1.322       .  A
N174        C178   1.340       .  A
N175        C176   1.348       .  A
C176        C177   1.389       .  A
C176        H179   1.082       .  S
C177        C178   1.381       .  A
C177        C487   1.482       .  S
C178        H180   1.082       .  S
N181        N182   1.321       .  A
N181        C185   1.348       .  A
N181       Cu189   2.077       .  S
N182        C183   1.340       .  A
N182       Cu188   2.065       .  S
C183        C184   1.381       .  A
C183        H186   1.082       .  S
C184        C185   1.387       .  A
C184        C428   1.475       .  S
C185        H187   1.082       .  S
Cu188       N191   2.069       .  S
Cu189       N199   2.076       .  S
Cu190       N192   2.068       .  S
Cu190       N198   2.069       .  S
N191        N192   1.320       .  A
N191        C195   1.345       .  A
N192        C193   1.345       .  A
C193        C194   1.386       .  A
C193        H196   1.081       .  S
C194        C195   1.385       .  A
C194        C669   1.483       .  S
C195        H197   1.082       .  S
N198        N199   1.323       .  A
N198        C202   1.342       .  A
N199        C200   1.345       .  A
C200        C201   1.383       .  A
C200        H203   1.081       .  S
C201        C202   1.381       .  A
C201        C442   1.474       .  S
C202        H204   1.082       .  S
N205        N206   1.322       .  A
N205        C209   1.346       .  A
N205       Cu213   2.069       .  S
N206        C207   1.340       .  A
N206       Cu212   2.064       .  S
C207        C208   1.382       .  A
C207        H210   1.082       .  S
C208        C209   1.385       .  A
C208        C515   1.478   1_655  S
C209        H211   1.081       .  S
Cu212       N215   2.061       .  S
Cu213       N223   2.070       .  S
Cu214       N216   2.065       .  S
Cu214       N222   2.066       .  S
N215        N216   1.319       .  A
N215        C219   1.342       .  A
N216        C217   1.344       .  A
C217        C218   1.386       .  A
C217        H220   1.082       .  S
C218        C219   1.383       .  A
C218        C414   1.476       .  S
C219        H221   1.082       .  S
N222        N223   1.323       .  A
N222        C226   1.341       .  A
N223        C224   1.346       .  A
C224        C225   1.383       .  A
C224        H227   1.082       .  S
C225        C226   1.381       .  A
C225        C445   1.473       .  S
C226        H228   1.081       .  S
C229        C230   1.403       .  A
C229        C234   1.402       .  A
C229        C417   1.471       .  S
C230        C231   1.401       .  A
C230        H235   1.084       .  S
C231        C232   1.402       .  A
C231        C400   1.473       .  S
C232        C233   1.399       .  A
C232        H236   1.084       .  S
C233        C234   1.398       .  A
C233        C599   1.471       .  S
C234        H237   1.084       .  S
C238        C239   1.405       .  A
C238        C243   1.404       .  A
C238        C386   1.477       .  S
C239        C240   1.402       .  A
C239        H244   1.084       .  S
C240        C241   1.402       .  A
C240        C459   1.475       .  S
C241        C242   1.402       .  A
C241        H245   1.084       .  S
C242        C243   1.403       .  A
C242        C638   1.484       .  S
C243        H246   1.084       .  S
N247        N248   1.322       .  A
N247        C251   1.348       .  A
N247       Cu255   2.081       .  S
N248        C249   1.341       .  A
N248       Cu254   2.065       .  S
C249        C250   1.384       .  A
C249        H252   1.081       .  S
C250        C251   1.387       .  A
C250        C431   1.483       .  S
C251        H253   1.082       .  S
Cu254       N257   2.065       .  S
Cu255       N265   2.082       .  S
Cu256       N258   2.076       .  S
Cu256       N264   2.076       .  S
N257        N258   1.319       .  A
N257        C261   1.343       .  A
N258        C259   1.346       .  A
C259        C260   1.390       .  A
C259        H262   1.082       .  S
C260        C261   1.387       .  A
C260        C389   1.486       .  S
C261        H263   1.081       .  S
N264        N265   1.323       .  A
N264        C268   1.343       .  A
N265        C266   1.348       .  A
C266        C267   1.386       .  A
C266        H269   1.082       .  S
C267        C268   1.384       .  A
C267        C372   1.482       .  S
C268        H270   1.082       .  S
N271        N272   1.322       .  A
N271        C275   1.347       .  A
N271       Cu279   2.083   1_554  S
N272        C273   1.342       .  A
N272       Cu278   2.067       .  S
C273        C274   1.384       .  A
C273        H276   1.082       .  S
C274        C275   1.389       .  A
C274        C358   1.486       .  S
C275        H277   1.081       .  S
Cu278       N281   2.066       .  S
Cu279       N289   2.083       .  S
Cu280       N282   2.060       .  S
Cu280       N288   2.061       .  S
N281        N282   1.320   1_554  A
N281        C285   1.342       .  A
N282        C283   1.344       .  A
C283        C284   1.385   1_556  A
C283        H286   1.081       .  S
C284        C285   1.385       .  A
C284        C708   1.480       .  S
C285        H287   1.082       .  S
N288        N289   1.322       .  A
N288        C292   1.341       .  A
N289        C290   1.347       .  A
C290        C291   1.389       .  A
C290        H293   1.081       .  S
C291        C292   1.383       .  A
C291        C375   1.484       .  S
C292        H294   1.082       .  S
N295        N296   1.320       .  A
N295        C299   1.346       .  A
N295       Cu303   2.068       .  S
N296        C297   1.341       .  A
N296       Cu302   2.065       .  S
C297        C298   1.382       .  A
C297        H300   1.082       .  S
C298        C299   1.386       .  A
C298        C473   1.476       .  S
C299        H301   1.081       .  S
Cu302       N305   2.066       .  S
Cu303       N313   2.069       .  S
Cu304       N306   2.078       .  S
Cu304       N312   2.080       .  S
N305        N306   1.321       .  A
N305        C309   1.342       .  A
N306        C307   1.347       .  A
C307        C308   1.389       .  A
C307        H310   1.081       .  S
C308        C309   1.385       .  A
C308        C403   1.486       .  S
C309        H311   1.082       .  S
N312        N313   1.323       .  A
N312        C316   1.346       .  A
N313        C314   1.342       .  A
C314        C315   1.384       .  A
C314        H317   1.081       .  S
C315        C316   1.387       .  A
C315        C347   1.483       .  S
C316        H318   1.082       .  S
N319        N320   1.321       .  A
N319        C323   1.347       .  A
N319       Cu327   2.081       .  S
N320        C321   1.342       .  A
N320       Cu326   2.068       .  S
C321        C322   1.382       .  A
C321        H324   1.082       .  S
C322        C323   1.389       .  A
C322        C361   1.481       .  S
C323        H325   1.082       .  S
Cu326       N329   2.070       .  S
Cu327       N337   2.082       .  S
Cu328       N330   2.066       .  S
Cu328       N336   2.067       .  S
N329        N330   1.319       .  A
N329        C333   1.343       .  A
N330        C331   1.344       .  A
C331        C332   1.389       .  A
C331        H334   1.080       .  S
C332        C333   1.388       .  A
C332        C501   1.489       .  S
C333        H335   1.082       .  S
N336        N337   1.322       .  A
N336        C340   1.344       .  A
N337        C338   1.345       .  A
C338        C339   1.388       .  A
C338        H341   1.082       .  S
C339        C340   1.385       .  A
C339        C344   1.485       .  S
C340        H342   1.081       .  S
C343        C344   1.403       .  A
C343        C348   1.400       .  A
C343        H350   1.083       .  S
C344        C345   1.416       .  A
C345        C346   1.408       .  A
C345        N352   1.437       .  S
C346        C347   1.404       .  A
C346        H351   1.083       .  S
C347        C348   1.410       .  A
C348        N349   1.432       .  S
N349        H353   1.046       .  S
N349        H354   1.045       .  S
N352        H355   1.046       .  S
N352        H356   1.045       .  S
C357        C358   1.404       .  A
C357        C362   1.405       .  A
C357        H364   1.084       .  S
C358        C359   1.415       .  A
C359        C360   1.407   1_565  A
C359        N366   1.437   1_554  S
C360        C361   1.403       .  A
C360        H365   1.084       .  S
C361        C362   1.412   1_545  A
C362        N363   1.438   1_565  S
N363        H367   1.045   1_545  S
N363        H368   1.046       .  S
N366        H369   1.045       .  S
N366        H370   1.046       .  S
C371        C372   1.404       .  A
C371        C376   1.406       .  A
C371        H378   1.084       .  S
C372        C373   1.410       .  A
C373        C374   1.401       .  A
C373        N380   1.432       .  S
C374        C375   1.404       .  A
C374        H379   1.084       .  S
C375        C376   1.411       .  A
C376        N377   1.431       .  S
N377        H381   1.046       .  S
N377        H382   1.045       .  S
N380        H383   1.046       .  S
N380        H384   1.045       .  S
C385        C386   1.402       .  A
C385        C390   1.405       .  A
C385        H392   1.084       .  S
C386        C387   1.406       .  A
C387        C388   1.402       .  A
C387        N394   1.432       .  S
C388        C389   1.406       .  A
C388        H393   1.082       .  S
C389        C390   1.413       .  A
C390        N391   1.432       .  S
N391        H395   1.045       .  S
N391        H396   1.046       .  S
N394        H397   1.045       .  S
N394        H398   1.046       .  S
C399        C400   1.400       .  A
C399        C404   1.406       .  A
C399        H406   1.084       .  S
C400        C401   1.406       .  A
C401        C402   1.404       .  A
C401        N408   1.438       .  S
C402        C403   1.406       .  A
C402        H407   1.083       .  S
C403        C404   1.417       .  A
C404        N405   1.437       .  S
N405        H409   1.045       .  S
N405        H410   1.046       .  S
N408        H411   1.045       .  S
N408        H412   1.045       .  S
C413        C414   1.404       .  A
C413        C418   1.398       .  A
C413        H420   1.084       .  S
C414        C415   1.417       .  A
C415        C416   1.401       .  A
C415        N422   1.439       .  S
C416        C417   1.401       .  A
C416        H421   1.084       .  S
C417        C418   1.414       .  A
C418        N419   1.439       .  S
N419        H423   1.046       .  S
N419        H424   1.043       .  S
N422        H425   1.043       .  S
N422        H426   1.046       .  S
C427        C428   1.401       .  A
C427        C432   1.396       .  A
C427        H434   1.085       .  S
C428        C429   1.415       .  A
C429        C430   1.407       .  A
C429        N436   1.438       .  S
C430        C431   1.407       .  A
C430        H435   1.084       .  S
C431        C432   1.411       .  A
C432        N433   1.432       .  S
N433        H437   1.045       .  S
N433        H438   1.046       .  S
N436        H439   1.043       .  S
N436        H440   1.046       .  S
C441        C442   1.402       .  A
C441        C446   1.396       .  A
C441        H448   1.084       .  S
C442        C443   1.413       .  A
C443        C444   1.399       .  A
C443        N450   1.432       .  S
C444        C445   1.403       .  A
C444        H449   1.084       .  S
C445        C446   1.414       .  A
C446        N447   1.433       .  S
N447        H451   1.042       .  S
N447        H452   1.046       .  S
N450        H453   1.045       .  S
N450        H454   1.044       .  S
C455        C456   1.403       .  A
C455        C460   1.404       .  A
C455        H462   1.084       .  S
C456        C457   1.416       .  A
C457        C458   1.407       .  A
C457        N464   1.438       .  S
C458        C459   1.400       .  A
C458        H463   1.084       .  S
C459        C460   1.407       .  A
C460        N461   1.437       .  S
N461        H465   1.046       .  S
N461        H466   1.046       .  S
N464        H467   1.046       .  S
N464        H468   1.046       .  S
C469        C470   1.404       .  A
C469        C474   1.397   1_455  A
C469        H476   1.084       .  S
C470        C471   1.413   1_455  A
C471        C472   1.404       .  A
C471        N478   1.431       .  S
C472        C473   1.402       .  A
C472        H477   1.084       .  S
C473        C474   1.414       .  A
C474        N475   1.432       .  S
N475        H479   1.046       .  S
N475        H480   1.044       .  S
N478        H481   1.045       .  S
N478        H482   1.046       .  S
C483        C484   1.407       .  A
C483        C488   1.405       .  A
C483        H490   1.083       .  S
C484        C485   1.411       .  A
C485        C486   1.402       .  A
C485        N492   1.432       .  S
C486        C487   1.404       .  A
C486        H491   1.083       .  S
C487        C488   1.408       .  A
C488        N489   1.432       .  S
N489        H493   1.045       .  S
N489        H494   1.046       .  S
N492        H495   1.046       .  S
N492        H496   1.046       .  S
C497        C498   1.399       .  A
C497        C502   1.401       .  A
C497        H504   1.084       .  S
C498        C499   1.409       .  A
C499        C500   1.406       .  A
C499        N506   1.438   1_554  S
C500        C501   1.407       .  A
C500        H505   1.083       .  S
C501        C502   1.415       .  A
C502        N503   1.431       .  S
N503        H507   1.046       .  S
N503        H508   1.046       .  S
N506        H509   1.046       .  S
N506        H510   1.045       .  S
C511        C512   1.402       .  A
C511        C516   1.405       .  A
C511        H518   1.084       .  S
C512        C513   1.413       .  A
C513        C514   1.402       .  A
C513        N520   1.438       .  S
C514        C515   1.402       .  A
C514        H519   1.084   1_455  S
C515        C516   1.413       .  A
C516        N517   1.437       .  S
N517        H521   1.046       .  S
N517        H522   1.046       .  S
N520        H523   1.045       .  S
N520        H524   1.046       .  S
C525        C526   1.402       .  A
C525        C530   1.399       .  A
C525        H532   1.084       .  S
C526        C527   1.415       .  A
C527        C528   1.397       .  A
C527        N534   1.433       .  S
C528        C529   1.404       .  A
C528        H533   1.084       .  S
C529        C530   1.417       .  A
C530        N531   1.432       .  S
N531        H535   1.042       .  S
N531        H536   1.046       .  S
N534        H537   1.047       .  S
N534        H538   1.042       .  S
C539        C540   1.403       .  A
C539        C544   1.400       .  A
C539        H546   1.084       .  S
C540        C541   1.408       .  A
C541        C542   1.402       .  A
C541        N548   1.432       .  S
C542        C543   1.404       .  A
C542        H547   1.084       .  S
C543        C544   1.416       .  A
C544        N545   1.431       .  S
N545        H549   1.045       .  S
N545        H550   1.044       .  S
N548        H551   1.045       .  S
N548        H552   1.046       .  S
C553        C554   1.406       .  A
C553        C558   1.410       .  A
C553        H560   1.084   1_554  S
C554        C555   1.420       .  A
C555        C556   1.397       .  A
C555        N562   1.432       .  S
C556        C557   1.403       .  A
C556        H561   1.084       .  S
C557        C558   1.414       .  A
C558        N559   1.438   1_554  S
N559        H563   1.046       .  S
N559        H564   1.045       .  S
N562        H565   1.046       .  S
N562        H566   1.042       .  S
C567        C568   1.402       .  A
C567        C572   1.402   1_565  A
C567        H574   1.084       .  S
C568        C569   1.411       .  A
C569        C570   1.400   1_565  A
C569        N576   1.439       .  S
C570        C571   1.403       .  A
C570        H575   1.083       .  S
C571        C572   1.414       .  A
C572        N573   1.432       .  S
N573        H577   1.044       .  S
N573        H578   1.045       .  S
N576        H579   1.046       .  S
N576        H580   1.045       .  S
C581        C582   1.404       .  A
C581        C586   1.398       .  A
C581        H588   1.084       .  S
C582        C583   1.415       .  A
C583        C584   1.397       .  A
C583        N590   1.432       .  S
C584        C585   1.402       .  A
C584        H589   1.084       .  S
C585        C586   1.413       .  A
C586        N587   1.433       .  S
N587        H591   1.042       .  S
N587        H592   1.047       .  S
N590        H593   1.044       .  S
N590        H594   1.044       .  S
C595        C596   1.405       .  A
C595        C600   1.400   1_455  A
C595        H602   1.084       .  S
C596        C597   1.409       .  A
C597        C598   1.400   1_455  A
C597        N604   1.433       .  S
C598        C599   1.400       .  A
C598        H603   1.084       .  S
C599        C600   1.411       .  A
C600        N601   1.432       .  S
N601        H605   1.045       .  S
N601        H606   1.046       .  S
N604        H607   1.045       .  S
N604        H608   1.046       .  S
C609        C610   1.402       .  A
C609        C614   1.400       .  A
C609        H616   1.084       .  S
C610        C611   1.410       .  A
C611        C612   1.406       .  A
C611        N618   1.438       .  S
C612        C613   1.404       .  A
C612        H617   1.084       .  S
C613        C614   1.415       .  A
C614        N615   1.432       .  S
N615        H619   1.043       .  S
N615        H620   1.046       .  S
N618        H621   1.046       .  S
N618        H622   1.046       .  S
C623        C624   1.403       .  A
C623        C628   1.401       .  A
C623        H630   1.084       .  S
C624        C625   1.418       .  A
C625        C626   1.403       .  A
C625        N632   1.439       .  S
C626        C627   1.402       .  A
C626        H631   1.084       .  S
C627        C628   1.416       .  A
C628        N629   1.439       .  S
N629        H633   1.045       .  S
N629        H634   1.043       .  S
N632        H635   1.043       .  S
N632        H636   1.046       .  S
C637        C638   1.404       .  A
C637        C642   1.404       .  A
C637        H644   1.084       .  S
C638        C639   1.410       .  A
C639        C640   1.402       .  A
C639        N646   1.432       .  S
C640        C641   1.404       .  A
C640        H645   1.084       .  S
C641        C642   1.411       .  A
C642        N643   1.432       .  S
N643        H647   1.046       .  S
N643        H648   1.045       .  S
N646        H649   1.045       .  S
N646        H650   1.046       .  S
C651        C652   1.406       .  A
C651        C656   1.400       .  A
C651        H658   1.083       .  S
C652        C653   1.415       .  A
C653        C654   1.407       .  A
C653        N660   1.431       .  S
C654        C655   1.402       .  A
C654        H659   1.084       .  S
C655        C656   1.405       .  A
C656        N657   1.433       .  S
N657        H661   1.046       .  S
N657        H662   1.045       .  S
N660        H663   1.045       .  S
N660        H664   1.046       .  S
C665        C666   1.401       .  A
C665        C670   1.404       .  A
C665        H672   1.084       .  S
C666        C667   1.411       .  A
C667        C668   1.400       .  A
C667        N674   1.432       .  S
C668        C669   1.405       .  A
C668        H673   1.084       .  S
C669        C670   1.413       .  A
C670        N671   1.432       .  S
N671        H675   1.046       .  S
N671        H676   1.045       .  S
N674        H677   1.045       .  S
N674        H678   1.046       .  S
C679        C680   1.404   1_556  A
C679        C684   1.407   1_565  A
C679        H686   1.084       .  S
C680        C681   1.410       .  A
C681        C682   1.403   1_565  A
C681        N688   1.438       .  S
C682        C683   1.405       .  A
C682        H687   1.084       .  S
C683        C684   1.411   1_554  A
C684        N685   1.437       .  S
N685        H689   1.046   1_545  S
N685        H690   1.045       .  S
N688        H691   1.046       .  S
N688        H692   1.046       .  S
C693        C694   1.407       .  A
C693        C698   1.404       .  A
C693        H700   1.083   1_554  S
C694        C695   1.417       .  A
C695        C696   1.404       .  A
C695        N702   1.437       .  S
C696        C697   1.398       .  A
C696        H701   1.084       .  S
C697        C698   1.405       .  A
C698        N699   1.438   1_554  S
N699        H703   1.046       .  S
N699        H704   1.045       .  S
N702        H705   1.046       .  S
N702        H706   1.045       .  S
C707        C708   1.405       .  A
C707        C712   1.401       .  A
C707        H714   1.084       .  S
C708        C709   1.413   1_554  A
C709        C710   1.402       .  A
C709        N716   1.432       .  S
C710        C711   1.399   1_556  A
C710        H715   1.084       .  S
C711        C712   1.404       .  A
C712        N713   1.432       .  S
N713        H717   1.046       .  S
N713        H718   1.045       .  S
N716        H719   1.045       .  S
N716        H720   1.046       .  S
