geometry optimzed in LAMMPS
_audit_creation_date              2020-11-30 
_audit_creation_method            'lammps2cif' 
_symmetry_space_group_name_H-M    'P1' 
_symmetry_Int_Tables_number       1 
_symmetry_cell_setting            triclinic 
loop_ 
_symmetry_equiv_pos_as_xyz 
  x,y,z 
_cell_length_a                    124.01738833 
_cell_length_b                    124.03863194949524 
_cell_length_c                    124.11845735620483 
_cell_angle_alpha                 90.06601890964889 
_cell_angle_beta                  90.04528027445768 
_cell_angle_gamma                 90.02137232874853 
loop_ 
_atom_site_label 
_atom_site_type_symbol 
_atom_site_fract_x 
_atom_site_fract_y 
_atom_site_fract_z 
_atom_site_charge 
N1          N  0.42957654  0.44985191  0.60423981    -0.27200
N2          N  0.42353469  0.45113847  0.61290979    -0.35100
C3          C  0.41888844  0.46094655  0.61255448     0.01100
C4          C  0.42214692  0.46607873  0.60318164     0.07100
C5          C  0.42889369  0.45876603  0.59809870    -0.06000
H6          H  0.41367830  0.46416737  0.61872284     0.07800
H7          H  0.43316214  0.45992396  0.59061076     0.09000
Cu8        Cu  0.42205545  0.43937603  0.62476373     0.44200
Cu9        Cu  0.43933624  0.43646858  0.60181622     0.42000
Cu10       Cu  0.44083504  0.41674238  0.62342322     0.43900
N11         N  0.42096584  0.42575414  0.63448427    -0.34600
N12         N  0.42764747  0.41744949  0.63397456    -0.28900
C13         C  0.42400758  0.40964256  0.64060949    -0.05000
C14         C  0.41459874  0.41320465  0.64550841     0.07200
C15         C  0.41297604  0.42347286  0.64145730     0.01000
H16         H  0.42767682  0.40179238  0.64147293     0.08700
H17         H  0.40625004  0.42873520  0.64313836     0.07800
N18         N  0.45198206  0.41762767  0.61075392    -0.36100
N19         N  0.45087870  0.42437368  0.60258470    -0.28200
C20         C  0.45902860  0.42287861  0.59560992    -0.03500
C21         C  0.46581441  0.41496695  0.59960425     0.05100
C22         C  0.46105505  0.41180746  0.60924848     0.03200
H23         H  0.46008408  0.42744645  0.58827076     0.08300
H24         H  0.46406653  0.40586329  0.61485122     0.07200
N25         N  0.40134259  0.58198419  0.54813147    -0.27200
N26         N  0.39399686  0.58968135  0.54874397    -0.35100
C27         C  0.39523973  0.59647874  0.54041215     0.01100
C28         C  0.40373190  0.59287511  0.53416649     0.07100
C29         C  0.40744600  0.58367389  0.53930876    -0.06000
H30         H  0.39015226  0.60338043  0.53885812     0.07800
H31         H  0.41387823  0.57842646  0.53664914     0.09000
Cu32       Cu  0.38214347  0.59031845  0.56044251     0.44200
Cu33       Cu  0.40203748  0.56920637  0.55903012     0.42000
Cu34       Cu  0.38061815  0.56849653  0.57945949     0.43900
N35         N  0.37116904  0.58988943  0.57297170    -0.34600
N36         N  0.37069745  0.58205161  0.58015886    -0.28900
C37         C  0.36312261  0.58454201  0.58753411    -0.05000
C38         C  0.35858527  0.59439172  0.58478520     0.07200
C39         C  0.36386385  0.59748634  0.57547565     0.01000
H40         H  0.36116439  0.57963405  0.59444820     0.08700
H41         H  0.36258947  0.60479859  0.57092224     0.07800
N42         N  0.39191475  0.55625830  0.57712028    -0.36100
N43         N  0.39989139  0.55670045  0.57005681    -0.28200
C44         C  0.40585593  0.54766464  0.57090634    -0.03500
C45         C  0.40136514  0.54113254  0.57877877     0.05100
C46         C  0.39251814  0.54685979  0.58250507     0.03200
H47         H  0.41291009  0.54595621  0.56610053     0.08300
H48         H  0.38689986  0.54435848  0.58865982     0.07200
N49         N  0.57650862  0.38993288  0.53610867    -0.27200
N50         N  0.58558675  0.38451126  0.53751859    -0.35100
C51         C  0.59196042  0.38600942  0.52885278     0.01100
C52         C  0.58662080  0.39270981  0.52170166     0.07100
C53         C  0.57687569  0.39504086  0.52656443    -0.06000
H54         H  0.59987246  0.38250303  0.52783593     0.07800
H55         H  0.57048907  0.40004423  0.52336561     0.09000
Cu56       Cu  0.58865990  0.37509185  0.55107861     0.44200
Cu57       Cu  0.56379562  0.38996331  0.54698955     0.42000
Cu58       Cu  0.56575354  0.37121086  0.56905302     0.43900
N59         N  0.58892234  0.36505896  0.56453966    -0.34600
N60         N  0.58044031  0.36326876  0.57073783    -0.28900
C61         C  0.58310690  0.35601119  0.57834344    -0.05000
C62         C  0.59383651  0.35318323  0.57699532     0.07200
C63         C  0.59725420  0.35911465  0.56816426     0.01000
H64         H  0.57764758  0.35305040  0.58442695     0.08700
H65         H  0.60520187  0.35910954  0.56463234     0.07800
N66         N  0.55248195  0.38117556  0.56656696    -0.36100
N67         N  0.55183059  0.38815049  0.55854519    -0.28200
C68         C  0.54245620  0.39356982  0.55930689    -0.03500
C69         C  0.53693015  0.38982467  0.56823966     0.05100
C70         C  0.54353192  0.38197270  0.57264847     0.03200
H71         H  0.53989959  0.39984688  0.55383062     0.08300
H72         H  0.54197602  0.37725174  0.57979857     0.07200
N73         N  0.61185008  0.43216270  0.43495127    -0.27200
N74         N  0.61692877  0.42298510  0.43303369    -0.35100
C75         C  0.61532872  0.41625298  0.44136993     0.01100
C76         C  0.60903689  0.42145951  0.44897574     0.07100
C77         C  0.60697417  0.43153291  0.44462170    -0.06000
H78         H  0.61875915  0.40826741  0.44199293     0.07800
H79         H  0.60250023  0.43802996  0.44833690     0.09000
Cu80       Cu  0.62685749  0.42037866  0.41981480     0.44200
Cu81       Cu  0.61220807  0.44531537  0.42455218     0.42000
Cu82       Cu  0.63189420  0.44376720  0.40314561     0.43900
N83         N  0.63797995  0.42060274  0.40731093    -0.34600
N84         N  0.64001415  0.42924769  0.40142805    -0.28900
C85         C  0.64780183  0.42689468  0.39426305    -0.05000
C86         C  0.65078836  0.41624346  0.39567336     0.07200
C87         C  0.64440121  0.41250144  0.40401580     0.01000
H88         H  0.65102689  0.43250855  0.38844400     0.08700
H89         H  0.64442572  0.40449073  0.40743473     0.07800
N90         N  0.62182936  0.45691889  0.40548444    -0.36100
N91         N  0.61442521  0.45738656  0.41312639    -0.28200
C92         C  0.60903559  0.46676518  0.41223877    -0.03500
C93         C  0.61331060  0.47251620  0.40367208     0.05100
C94         C  0.62142042  0.46601512  0.39959784     0.03200
H95         H  0.60252614  0.46923142  0.41745645     0.08300
H96         H  0.62665636  0.46777651  0.39288296     0.07200
N97         N  0.58327509  0.56328482  0.38024836    -0.27200
N98         N  0.59036417  0.56348923  0.37229960    -0.35100
C99         C  0.59570343  0.55403725  0.37209546     0.01100
C100        C  0.59183108  0.54759651  0.38035580     0.07100
C101        C  0.58400064  0.55376765  0.38537968    -0.06000
H102        H  0.60181700  0.55194539  0.36626613     0.07800
H103        H  0.57904443  0.55143344  0.39213834     0.09000
Cu104      Cu  0.59234344  0.57659108  0.36202625     0.44200
Cu105      Cu  0.57217175  0.57546014  0.38317877     0.42000
Cu106      Cu  0.57304613  0.59827226  0.36504217     0.43900
N107        N  0.59288616  0.59082836  0.35318458    -0.34600
N108        N  0.58584154  0.59875222  0.35430882    -0.28900
C109        C  0.58847385  0.60682830  0.34756836    -0.05000
C110        C  0.59761867  0.60384097  0.34193597     0.07200
C111        C  0.60020115  0.59366118  0.34569886     0.01000
H112        H  0.58411776  0.61434074  0.34688697     0.08700
H113        H  0.60691730  0.58870844  0.34320748     0.07800
N114        N  0.56092802  0.59584295  0.37627913    -0.36100
N115        N  0.56066658  0.58761297  0.38304343    -0.28200
C116        C  0.55161034  0.58822541  0.38898951    -0.03500
C117        C  0.54593945  0.59725586  0.38576472     0.05100
C118        C  0.55204833  0.60188947  0.37770829     0.03200
H119        H  0.54919784  0.58238739  0.39499152     0.08300
H120        H  0.55009051  0.60902058  0.37309733     0.07200
N121        N  0.43880906  0.62777029  0.44891871    -0.27200
N122        N  0.42925354  0.63226345  0.44749487    -0.35100
C123        C  0.42299889  0.63012409  0.45608153     0.01100
C124        C  0.42890589  0.62401310  0.46330303     0.07100
C125        C  0.43890581  0.62268135  0.45849736    -0.06000
H126        H  0.41470111  0.63266187  0.45691932     0.07800
H127        H  0.44568016  0.61820653  0.46165311     0.09000
Cu128      Cu  0.42507287  0.64070312  0.43371633     0.44200
Cu129      Cu  0.45090793  0.62820551  0.43731442     0.42000
Cu130      Cu  0.44272070  0.63736665  0.41068308     0.43900
N131        N  0.42242077  0.64780266  0.41884899    -0.34600
N132        N  0.42852434  0.64610876  0.41029163    -0.28900
C133        C  0.42447767  0.65165804  0.40191237    -0.05000
C134        C  0.41547287  0.65725036  0.40541167     0.07200
C135        C  0.41443628  0.65462646  0.41620014     0.01000
H136        H  0.42793873  0.65175066  0.39394312     0.08700
H137        H  0.40839330  0.65753413  0.42174300     0.07800
N138        N  0.45767881  0.63078934  0.41403999    -0.36100
N139        N  0.46085192  0.62798411  0.42381584    -0.28200
C140        C  0.47102935  0.62429721  0.42327156    -0.03500
C141        C  0.47437258  0.62463623  0.41262678     0.05100
C142        C  0.46569082  0.62882129  0.40701005     0.03200
H143        H  0.47555732  0.62128975  0.43008690     0.08300
H144        H  0.46514220  0.63012980  0.39841171     0.07200
N145        N  0.62368206  0.08041501  0.04044728    -0.27200
N146        N  0.63211913  0.08692736  0.04011899    -0.35100
C147        C  0.63146496  0.09311035  0.03122767     0.01100
C148        C  0.62215626  0.09035746  0.02569736     0.07100
C149        C  0.61743149  0.08228464  0.03178181    -0.06000
H150        H  0.63731178  0.09914614  0.02896675     0.07800
H151        H  0.60999602  0.07809533  0.03004056     0.09000
Cu152      Cu  0.64391006  0.08733883  0.05201067     0.44200
Cu153      Cu  0.62112257  0.06913927  0.05257706     0.42000
Cu154      Cu  0.64124358  0.06804938  0.07381593     0.43900
N155        N  0.65345472  0.08752687  0.06577055    -0.34600
N156        N  0.65235380  0.08068600  0.07386266    -0.28900
C157        C  0.65887683  0.08379583  0.08198438    -0.05000
C158        C  0.66434720  0.09302271  0.07884141     0.07200
C159        C  0.66074720  0.09508871  0.06848666     0.01000
H160        H  0.65924562  0.07992465  0.08977504     0.08700
H161        H  0.66289118  0.10188723  0.06348646     0.07800
N162        N  0.62870687  0.05694009  0.07222261    -0.36100
N163        N  0.62110573  0.05765807  0.06478301    -0.28200
C164        C  0.61411148  0.04945652  0.06604987    -0.03500
C165        C  0.61754566  0.04311095  0.07458158     0.05100
C166        C  0.62684197  0.04813584  0.07828576     0.03200
H167        H  0.60714788  0.04810150  0.06098364     0.08300
H168        H  0.63198585  0.04547873  0.08478585     0.07200
N169        N  0.55755580  0.11388022  0.91697760    -0.27200
N170        N  0.55937986  0.11867504  0.90763289    -0.35100
C171        C  0.55140946  0.11605740  0.90072742     0.01100
C172        C  0.54415096  0.10937479  0.90597172     0.07100
C173        C  0.54834200  0.10815789  0.91625548    -0.06000
H174        H  0.55072307  0.11912812  0.89260953     0.07800
H175        H  0.54473317  0.10377019  0.92285632     0.09000
Cu176      Cu  0.57190201  0.12961715  0.90495241     0.44200
Cu177      Cu  0.56725293  0.11589971  0.93058556     0.42000
Cu178      Cu  0.58676237  0.13744626  0.92873781     0.43900
N179        N  0.58377280  0.14157175  0.90499022    -0.34600
N180        N  0.58893911  0.14459976  0.91381115    -0.28900
C181        C  0.59577395  0.15266019  0.91137548    -0.05000
C182        C  0.59494248  0.15482371  0.90046972     0.07200
C183        C  0.58724670  0.14762719  0.89667391     0.01000
H184        H  0.60093869  0.15667720  0.91713091     0.08700
H185        H  0.58435342  0.14689584  0.88849419     0.07800
N186        N  0.58492123  0.12788392  0.94229367    -0.36100
N187        N  0.57804295  0.11976316  0.94291008    -0.28200
C188        C  0.57975706  0.11444953  0.95221851    -0.03500
C189        C  0.58811114  0.11947962  0.95771029     0.05100
C190        C  0.59110966  0.12801953  0.95119703     0.03200
H191        H  0.57556579  0.10719507  0.95459637     0.08300
H192        H  0.59763831  0.13361701  0.95258672     0.07200
N193        N  0.45382922  0.07766429  0.88112271    -0.27200
N194        N  0.45404453  0.08501496  0.87341404    -0.35100
C195        C  0.46361661  0.09016992  0.87378574     0.01100
C196        C  0.46970469  0.08581628  0.88210143     0.07100
C197        C  0.46322377  0.07791010  0.88655079    -0.06000
H198        H  0.46601515  0.09654200  0.86835550     0.07800
H199        H  0.46527052  0.07258062  0.89313080     0.09000
Cu200      Cu  0.44130694  0.08731148  0.86258118     0.44200
Cu201      Cu  0.44109621  0.06708225  0.88352798     0.42000
Cu202      Cu  0.41992003  0.06708075  0.86350363     0.43900
N203        N  0.42732540  0.08791924  0.85313802    -0.34600
N204        N  0.41954798  0.08061897  0.85353272    -0.28900
C205        C  0.41148787  0.08366387  0.84690757    -0.05000
C206        C  0.41430558  0.09332779  0.84206287     0.07200
C207        C  0.42441971  0.09575074  0.84619591     0.01000
H208        H  0.40401837  0.07929876  0.84588062     0.08700
H209        H  0.42922393  0.10279552  0.84442918     0.07800
N210        N  0.42160261  0.05516396  0.87523989    -0.36100
N211        N  0.42894557  0.05559964  0.88294960    -0.28200
C212        C  0.42775338  0.04702589  0.88946758    -0.03500
C213        C  0.41938842  0.04070293  0.88558548     0.05100
C214        C  0.41569247  0.04614530  0.87653203     0.03200
H215        H  0.43275822  0.04542418  0.89641948     0.08300
H216        H  0.40926458  0.04366077  0.87118978     0.07200
N217        N  0.56063701  0.92916006  0.10022571    -0.27200
N218        N  0.56211717  0.92088126  0.10676163    -0.35100
C219        C  0.55416583  0.91366517  0.10522833     0.01100
C220        C  0.54728516  0.91759156  0.09738619     0.07100
C221        C  0.55163982  0.92743361  0.09437662    -0.06000
H222        H  0.55334540  0.90619592  0.10963700     0.07800
H223        H  0.54837385  0.93302476  0.08854540     0.09000
Cu224      Cu  0.57461396  0.91990888  0.11780301     0.44200
Cu225      Cu  0.57079448  0.94255675  0.10002593     0.42000
Cu226      Cu  0.59369808  0.94182797  0.11866647     0.43900
N227        N  0.58793530  0.92015360  0.12787377    -0.34600
N228        N  0.59516595  0.92798085  0.12796120    -0.28900
C229        C  0.60304362  0.92542858  0.13498045    -0.05000
C230        C  0.60057854  0.91555997  0.13960305     0.07200
C231        C  0.59091387  0.91249991  0.13492959     0.01000
H232        H  0.61005121  0.93035620  0.13656236     0.08700
H233        H  0.58640919  0.90520962  0.13648226     0.07800
N234        N  0.58997777  0.95488250  0.10885386    -0.36100
N235        N  0.58180892  0.95511194  0.10199083    -0.28200
C236        C  0.58188930  0.96462599  0.09676995    -0.03500
C237        C  0.59047728  0.97069211  0.10055904     0.05100
C238        C  0.59539715  0.96426010  0.10823197     0.03200
H239        H  0.57619264  0.96691026  0.09058600     0.08300
H240        H  0.60246270  0.96621443  0.11294548     0.07200
N241        N  0.43509761  0.88549295  0.04067943    -0.27200
N242        N  0.42579713  0.88112502  0.04353461    -0.35100
C243        C  0.41840811  0.88320913  0.03585192     0.01100
C244        C  0.42328356  0.88911641  0.02771965     0.07100
C245        C  0.43388643  0.89035095  0.03105725    -0.06000
H246        H  0.41006449  0.88073836  0.03622889     0.07800
H247        H  0.44021811  0.89463017  0.02688220     0.09000
Cu248      Cu  0.42355661  0.87239833  0.05771306     0.44200
Cu249      Cu  0.44883678  0.88546483  0.05036384     0.42000
Cu250      Cu  0.44661804  0.87076952  0.07544706     0.43900
N251        N  0.42392784  0.86292773  0.07158034    -0.34600
N252        N  0.43250755  0.86207659  0.07784857    -0.28900
C253        C  0.43044182  0.85491086  0.08571891    -0.05000
C254        C  0.42000996  0.85111198  0.08443246     0.07200
C255        C  0.41612305  0.85641265  0.07538941     0.01000
H256        H  0.43614801  0.85256755  0.09186513     0.08700
H257        H  0.40824478  0.85551838  0.07178399     0.07800
N258        N  0.45975864  0.88036304  0.07148811    -0.36100
N259        N  0.46071253  0.88558979  0.06225669    -0.28200
C260        C  0.47022428  0.89084865  0.06216925    -0.03500
C261        C  0.47548655  0.88884277  0.07181975     0.05100
C262        C  0.46858188  0.88219976  0.07752804     0.03200
H263        H  0.47313463  0.89569341  0.05554581     0.08300
H264        H  0.46991905  0.87886786  0.08546481     0.07200
N265        N  0.38718202  0.93074205  0.94614410    -0.27200
N266        N  0.37886729  0.92405726  0.94648981    -0.35100
C267        C  0.37992624  0.91757482  0.95513291     0.01100
C268        C  0.38936125  0.92030924  0.96044242     0.07100
C269        C  0.39374404  0.92867332  0.95453067    -0.06000
H270        H  0.37435562  0.91123009  0.95728427     0.07800
H271        H  0.40117864  0.93291642  0.95618606     0.09000
Cu272      Cu  0.36689751  0.92350206  0.93472833     0.44200
Cu273      Cu  0.38943518  0.94239512  0.93429421     0.42000
Cu274      Cu  0.37150990  0.94121981  0.91178116     0.43900
N275        N  0.35818227  0.92277532  0.92041258    -0.34600
N276        N  0.36042868  0.92874038  0.91188582    -0.28900
C277        C  0.35433187  0.92545526  0.90355705    -0.05000
C278        C  0.34773374  0.91714627  0.90700654     0.07200
C279        C  0.35037328  0.91571009  0.91777526     0.01000
H280        H  0.35480045  0.92878817  0.89552576     0.08700
H281        H  0.34703212  0.90980863  0.92324586     0.07800
N282        N  0.38269630  0.95344711  0.91379023    -0.36100
N283        N  0.38949486  0.95377627  0.92198215    -0.28200
C284        C  0.39556607  0.96273365  0.92116539    -0.03500
C285        C  0.39235101  0.96837948  0.91207514     0.05100
C286        C  0.38416123  0.96223046  0.90760700     0.03200
H287        H  0.40169900  0.96509656  0.92690170     0.08300
H288        H  0.37943808  0.96412867  0.90053463     0.07200
N289        N  0.05878970  0.61683837  0.07352519    -0.27200
N290        N  0.06189656  0.62100572  0.08285749    -0.35100
C291        C  0.05424663  0.61912135  0.09030870     0.01100
C292        C  0.04595244  0.61345431  0.08549151     0.07100
C293        C  0.04909101  0.61211706  0.07486392    -0.06000
H294        H  0.05476429  0.62155145  0.09866591     0.07800
H295        H  0.04468290  0.60794516  0.06859716     0.09000
Cu296      Cu  0.07644089  0.62894596  0.08541269     0.44200
Cu297      Cu  0.06793574  0.61753748  0.05936058     0.42000
Cu298      Cu  0.09335758  0.63167773  0.06229637     0.43900
N299        N  0.09079784  0.63759140  0.08563244    -0.34600
N300        N  0.09675790  0.63900238  0.07693732    -0.28900
C301        C  0.10494257  0.64572564  0.07930111    -0.05000
C302        C  0.10422462  0.64859336  0.09007758     0.07200
C303        C  0.09516373  0.64320648  0.09383702     0.01000
H304        H  0.11085465  0.64848743  0.07353787     0.08700
H305        H  0.09184890  0.64353365  0.10187719     0.07800
N306        N  0.08874043  0.62371753  0.04833249    -0.36100
N307        N  0.07933491  0.61887566  0.04699060    -0.28200
C308        C  0.07891853  0.61481181  0.03690836    -0.03500
C309        C  0.08859129  0.61709237  0.03171828     0.05100
C310        C  0.09459742  0.62269952  0.03928050     0.03200
H311        H  0.07212715  0.61043233  0.03363414     0.08300
H312        H  0.10271078  0.62574212  0.03831767     0.07200
N313        N  0.11842231  0.58290932  0.94410608    -0.27200
N314        N  0.12422588  0.59180138  0.94298272    -0.35100
C315        C  0.12272974  0.59811683  0.95170051     0.01100
C316        C  0.11560789  0.59299646  0.95858875     0.07100
C317        C  0.11303667  0.58338875  0.95352243    -0.06000
H318        H  0.12649118  0.60589371  0.95291116     0.07800
H319        H  0.10767287  0.57718687  0.95648449     0.09000
Cu320      Cu  0.13381443  0.59508900  0.92953600     0.44200
Cu321      Cu  0.11809747  0.57039902  0.93284500     0.42000
Cu322      Cu  0.13441436  0.57415357  0.90907999     0.43900
N323        N  0.14276225  0.59620850  0.91531631    -0.34600
N324        N  0.14314226  0.58841764  0.90804451    -0.28900
C325        C  0.14977267  0.59139312  0.90000560    -0.05000
C326        C  0.15370474  0.60161528  0.90220271     0.07200
C327        C  0.14906297  0.60442099  0.91199253     0.01000
H328        H  0.15160379  0.58646721  0.89306523     0.08700
H329        H  0.15017254  0.61186875  0.91636156     0.07800
N330        N  0.12483526  0.56063896  0.91158479    -0.36100
N331        N  0.11899570  0.55914445  0.92036446    -0.28200
C332        C  0.11388861  0.54958545  0.91958788    -0.03500
C333        C  0.11657510  0.54486319  0.90981257     0.05100
C334        C  0.12351433  0.55214007  0.90495589     0.03200
H335        H  0.10859072  0.54631600  0.92567928     0.08300
H336        H  0.12729196  0.55133867  0.89714772     0.07200
N337        N  0.05368773  0.43781316  0.87353139    -0.27200
N338        N  0.05515324  0.42883685  0.86795787    -0.35100
C339        C  0.04637929  0.42251716  0.86902496     0.01100
C340        C  0.03902345  0.42777189  0.87557391     0.07100
C341        C  0.04393119  0.43744623  0.87825755    -0.06000
H342        H  0.04551154  0.41459145  0.86548023     0.07800
H343        H  0.04071367  0.44367913  0.88344409     0.09000
Cu344      Cu  0.06914758  0.42554549  0.85935396     0.44200
Cu345      Cu  0.06523870  0.44996492  0.87491589     0.42000
Cu346      Cu  0.09002470  0.44612266  0.85996987     0.43900
N347        N  0.08359749  0.42443833  0.85095350    -0.34600
N348        N  0.09112179  0.43199684  0.85102781    -0.28900
C349        C  0.09926014  0.42893690  0.84453712    -0.05000
C350        C  0.09675392  0.41895358  0.84020062     0.07200
C351        C  0.08677841  0.41634544  0.84446880     0.01000
H352        H  0.10642284  0.43365219  0.84303485     0.08700
H353        H  0.08215556  0.40912526  0.84293579     0.07800
N354        N  0.08715890  0.45934586  0.86985035    -0.36100
N355        N  0.07815117  0.46073754  0.87538417    -0.28200
C356        C  0.07894158  0.46993214  0.88112544    -0.03500
C357        C  0.08890057  0.47453800  0.87906167     0.05100
C358        C  0.09389027  0.46762261  0.87188154     0.03200
H359        H  0.07274775  0.47303222  0.88640099     0.08300
H360        H  0.10185231  0.46849818  0.86846028     0.07200
N361        N  0.93728425  0.55074076  0.11534339    -0.27200
N362        N  0.92848536  0.55188801  0.12126420    -0.35100
C363        C  0.92219228  0.54312362  0.11996318     0.01100
C364        C  0.92726371  0.53617129  0.11286303     0.07100
C365        C  0.93678869  0.54125522  0.11008869    -0.06000
H366        H  0.91451108  0.54189963  0.12388976     0.07800
H367        H  0.94295874  0.53822426  0.10473039     0.09000
Cu368      Cu  0.92544032  0.56529856  0.13091003     0.44200
Cu369      Cu  0.94983621  0.56188098  0.11489633     0.42000
Cu370      Cu  0.94691838  0.58502422  0.13233492     0.43900
N371        N  0.92456181  0.57938489  0.14001697    -0.34600
N372        N  0.93249783  0.58648005  0.14063748    -0.28900
C373        C  0.92953663  0.59457548  0.14722088    -0.05000
C374        C  0.91920471  0.59252837  0.15089272     0.07200
C375        C  0.91629770  0.58282879  0.14615177     0.01000
H376        H  0.93452891  0.60144276  0.14917704     0.08700
H377        H  0.90873118  0.57861450  0.14706701     0.07800
N378        N  0.96043990  0.58224796  0.12293190    -0.36100
N379        N  0.96152317  0.57383369  0.11647111    -0.28200
C380        C  0.97108492  0.57453404  0.11138262    -0.03500
C381        C  0.97623893  0.58383257  0.11482632     0.05100
C382        C  0.96925392  0.58851699  0.12213325     0.03200
H383        H  0.97403288  0.56875906  0.10555138     0.08300
H384        H  0.97041891  0.59602235  0.12642723     0.07200
N385        N  0.89959072  0.45001720  0.07398826    -0.27200
N386        N  0.89386484  0.44808401  0.08276254    -0.35100
C387        C  0.89564869  0.45603807  0.08994377     0.01100
C388        C  0.90272166  0.46342269  0.08542648     0.07100
C389        C  0.90503535  0.45931037  0.07530807    -0.06000
H390        H  0.89184657  0.45655612  0.09776047     0.07800
H391        H  0.91009437  0.46296138  0.06922425     0.09000
Cu392      Cu  0.88300116  0.43534014  0.08413966     0.44200
Cu393      Cu  0.89953515  0.44019225  0.06039454     0.42000
Cu394      Cu  0.87956443  0.41906923  0.06004684     0.43900
N395        N  0.87171213  0.42296782  0.08274341    -0.34600
N396        N  0.87039797  0.41715006  0.07389967    -0.28900
C397        C  0.86245655  0.40993648  0.07552217    -0.05000
C398        C  0.85857803  0.41126365  0.08588457     0.07200
C399        C  0.86461982  0.41959895  0.09023125     0.01000
H400        H  0.85972853  0.40414320  0.06961099     0.08700
H401        H  0.86393788  0.42292782  0.09825035     0.07800
N402        N  0.89032169  0.42174763  0.04752629    -0.36100
N403        N  0.89784069  0.42929810  0.04775248    -0.28200
C404        C  0.90385976  0.42853111  0.03875798    -0.03500
C405        C  0.89989037  0.42013131  0.03252798     0.05100
C406        C  0.89127333  0.41605640  0.03834133     0.03200
H407        H  0.91070099  0.43361055  0.03695663     0.08300
H408        H  0.88616192  0.40936009  0.03612830     0.07200
N409        N  0.95442215  0.39941146  0.91726640    -0.27200
N410        N  0.95199443  0.39428187  0.90823467    -0.35100
C411        C  0.95960545  0.39642048  0.90081003     0.01100
C412        C  0.96722874  0.40319417  0.90537043     0.07100
C413        C  0.96366748  0.40493977  0.91581103    -0.06000
H414        H  0.95980185  0.39297076  0.89281116     0.07800
H415        H  0.96773389  0.40953563  0.92201913     0.09000
Cu416      Cu  0.93909777  0.38363359  0.90672559     0.44200
Cu417      Cu  0.94547215  0.39779054  0.93139567     0.42000
Cu418      Cu  0.92649481  0.37531521  0.93160357     0.43900
N419        N  0.92711280  0.37190501  0.90754250    -0.34600
N420        N  0.92290474  0.36847442  0.91669999    -0.28900
C421        C  0.91580255  0.36054251  0.91455743    -0.05000
C422        C  0.91540711  0.35894983  0.90349737     0.07200
C423        C  0.92268073  0.36635067  0.89932943     0.01000
H424        H  0.91123407  0.35626205  0.92061694     0.08700
H425        H  0.92462209  0.36760784  0.89093776     0.07800
N426        N  0.92935927  0.38529764  0.94479513    -0.36100
N427        N  0.93582275  0.39377908  0.94455340    -0.28200
C428        C  0.93490714  0.39917344  0.95393060    -0.03500
C429        C  0.92759185  0.39379960  0.96045102     0.05100
C430        C  0.92431405  0.38499019  0.95438965     0.03200
H431        H  0.93906054  0.40661750  0.95576343     0.08300
H432        H  0.91844493  0.37896535  0.95665564     0.07200
N433        N  0.05815751  0.07996525  0.61006171    -0.27200
N434        N  0.05871985  0.08781957  0.61723610    -0.35100
C435        C  0.05005238  0.09424298  0.61612782     0.01100
C436        C  0.04364830  0.09016336  0.60792737     0.07100
C437        C  0.04904154  0.08108103  0.60429839    -0.06000
H438        H  0.04856716  0.10139829  0.62088977     0.07800
H439        H  0.04654420  0.07569766  0.59790515     0.09000
Cu440      Cu  0.07138941  0.08944456  0.62801675     0.44200
Cu441      Cu  0.07009308  0.06843064  0.60818030     0.42000
Cu442      Cu  0.09434946  0.07157247  0.62435735     0.43900
N443        N  0.08557700  0.09054810  0.63677735    -0.34600
N444        N  0.09406762  0.08428742  0.63523232    -0.28900
C445        C  0.10223728  0.08782688  0.64144327    -0.05000
C446        C  0.09869170  0.09672458  0.64716265     0.07200
C447        C  0.08808330  0.09817917  0.64405812     0.01000
H448        H  0.11025008  0.08442799  0.64150047     0.08700
H449        H  0.08273117  0.10457725  0.64655742     0.07800
N450        N  0.09195511  0.05908392  0.61347578    -0.36100
N451        N  0.08310532  0.05797201  0.60762060    -0.28200
C452        C  0.08383971  0.04887976  0.60176969    -0.03500
C453        C  0.09359384  0.04402891  0.60406496     0.05100
C454        C  0.09855087  0.05069549  0.61151351     0.03200
H455        H  0.07760519  0.04586965  0.59645313     0.08300
H456        H  0.10625862  0.04942045  0.61539179     0.07200
N457        N  0.12203315  0.93767922  0.53790123    -0.27200
N458        N  0.12904647  0.92964688  0.53806969    -0.35100
C459        C  0.12836210  0.92414994  0.52874094     0.01100
C460        C  0.12054259  0.92894551  0.52241390     0.07100
C461        C  0.11669195  0.93749183  0.52846101    -0.06000
H462        H  0.13296606  0.91699192  0.52684586     0.07800
H463        H  0.11030600  0.94299991  0.52626556     0.09000
Cu464      Cu  0.13875041  0.92603800  0.55120958     0.44200
Cu465      Cu  0.11969424  0.94828014  0.55066502     0.42000
Cu466      Cu  0.13543576  0.94302490  0.57466294     0.43900
N467        N  0.14703785  0.92370101  0.56554918    -0.34600
N468        N  0.14575462  0.92988189  0.57413790    -0.28900
C469        C  0.15210447  0.92621010  0.58211991    -0.05000
C470        C  0.15765033  0.91728933  0.57836946     0.07200
C471        C  0.15425057  0.91591991  0.56783177     0.01000
H472        H  0.15259804  0.92971771  0.59006176     0.08700
H473        H  0.15679619  0.90973630  0.56226937     0.07800
N474        N  0.12504801  0.95602464  0.57308780    -0.36100
N475        N  0.11928747  0.95796241  0.56433044    -0.28200
C476        C  0.11392802  0.96730289  0.56564077    -0.03500
C477        C  0.11646817  0.97143846  0.57568402     0.05100
C478        C  0.12351023  0.96407047  0.58019585     0.03200
H479        H  0.10888860  0.97102095  0.55957412     0.08300
H480        H  0.12750345  0.96469411  0.58792482     0.07200
N481        N  0.08050108  0.89364529  0.43975407    -0.27200
N482        N  0.08939964  0.88797096  0.43823614    -0.35100
C483        C  0.09662741  0.89067317  0.44588618     0.01100
C484        C  0.09201898  0.89834564  0.45259069     0.07100
C485        C  0.08179369  0.90001472  0.44844090    -0.06000
H486        H  0.10455944  0.88716306  0.44664152     0.07800
H487        H  0.07565196  0.90530926  0.45163958     0.09000
Cu488      Cu  0.09101862  0.87627406  0.42625159     0.44200
Cu489      Cu  0.06684333  0.89236619  0.43015863     0.42000
Cu490      Cu  0.06713193  0.87140582  0.40993962     0.43900
N491        N  0.09021027  0.86463696  0.41412058    -0.34600
N492        N  0.08149579  0.86287071  0.40821628    -0.28900
C493        C  0.08361781  0.85500365  0.40103642    -0.05000
C494        C  0.09415646  0.85162024  0.40249854     0.07200
C495        C  0.09809007  0.85789809  0.41086610     0.01000
H496        H  0.07794494  0.85201853  0.39514141     0.08700
H497        H  0.10612202  0.85767414  0.41423933     0.07800
N498        N  0.05415940  0.88179507  0.41233429    -0.36100
N499        N  0.05420329  0.88966766  0.41952027    -0.28200
C500        C  0.04517860  0.89558217  0.41835264    -0.03500
C501        C  0.03910353  0.89120021  0.41005943     0.05100
C502        C  0.04502718  0.88240952  0.40649731     0.03200
H503        H  0.04336821  0.90276336  0.42293060     0.08300
H504        H  0.04303980  0.87710004  0.39988710     0.07200
N505        N  0.95776849  0.11875367  0.56914817    -0.27200
N506        N  0.95546572  0.12330649  0.57849906    -0.35100
C507        C  0.96361894  0.12147200  0.58542748     0.01100
C508        C  0.97141099  0.11545218  0.58016846     0.07100
C509        C  0.96742366  0.11386209  0.56987268    -0.06000
H510        H  0.96396321  0.12449117  0.59358717     0.07800
H511        H  0.97138216  0.10969855  0.56330999     0.09000
Cu512      Cu  0.94172265  0.13254895  0.58097488     0.44200
Cu513      Cu  0.94787525  0.12004012  0.55572842     0.42000
Cu514      Cu  0.92687766  0.14053048  0.55696617     0.43900
N515        N  0.92923752  0.14370149  0.58096111    -0.34600
N516        N  0.92467569  0.14750455  0.57212821    -0.28900
C517        C  0.91780122  0.15544071  0.57489799    -0.05000
C518        C  0.91771279  0.15646012  0.58606937     0.07200
C519        C  0.92505442  0.14877656  0.58956946     0.01000
H520        H  0.91312404  0.16003083  0.56916556     0.08700
H521        H  0.92716764  0.14688966  0.59780461     0.07800
N522        N  0.92900857  0.13003635  0.54396069    -0.36100
N523        N  0.93663925  0.12259021  0.54360525    -0.28200
C524        C  0.93553510  0.11678783  0.53450961    -0.03500
C525        C  0.92675198  0.12069400  0.52886734     0.05100
C526        C  0.92280975  0.12910592  0.53508174     0.03200
H527        H  0.94063241  0.11008602  0.53226552     0.08300
H528        H  0.91579486  0.13400165  0.53340018     0.07200
N529        N  0.89541509  0.05773205  0.41974175    -0.27200
N530        N  0.88997576  0.05950981  0.41075103    -0.35100
C531        C  0.89144514  0.05111458  0.40401676     0.01100
C532        C  0.89805006  0.04362930  0.40904043     0.07100
C533        C  0.90038699  0.04811308  0.41900736    -0.06000
H534        H  0.88793519  0.05048895  0.39606721     0.07800
H535        H  0.90531157  0.04461841  0.42528179     0.09000
Cu536      Cu  0.88053552  0.07315815  0.40823221     0.44200
Cu537      Cu  0.89605663  0.06861247  0.43250832     0.42000
Cu538      Cu  0.88299846  0.09446406  0.42805271     0.43900
N539        N  0.87180667  0.08748420  0.40764302    -0.34600
N540        N  0.87311178  0.09547730  0.41457289    -0.28900
C541        C  0.86660986  0.10369218  0.41175622    -0.05000
C542        C  0.86076772  0.10069519  0.40270008     0.07200
C543        C  0.86426858  0.09032504  0.40037820     0.01000
H544        H  0.86614744  0.11128487  0.41602891     0.08700
H545        H  0.86151680  0.08518856  0.39389036     0.07800
N546        N  0.89165173  0.09066594  0.44187581    -0.36100
N547        N  0.89618101  0.08117747  0.44364101    -0.28200
C548        C  0.90081581  0.08127150  0.45345675    -0.03500
C549        C  0.89916087  0.09131335  0.45807088     0.05100
C550        C  0.89333004  0.09704811  0.45048554     0.03200
H551        H  0.90509348  0.07453494  0.45696622     0.08300
H552        H  0.89052564  0.10527291  0.45116989     0.07200
N553        N  0.93067793  0.95455532  0.38156188    -0.27200
N554        N  0.92216422  0.95409022  0.37513323    -0.35100
C555        C  0.91646311  0.96327736  0.37616774     0.01100
C556        C  0.92161888  0.96981094  0.38360482     0.07100
C557        C  0.93058167  0.96403265  0.38687203    -0.06000
H558        H  0.90916588  0.96510428  0.37177492     0.07800
H559        H  0.93668204  0.96661315  0.39253573     0.09000
Cu560      Cu  0.91878300  0.94117159  0.36491417     0.44200
Cu561      Cu  0.94254343  0.94267439  0.38234371     0.42000
Cu562      Cu  0.94026329  0.92171119  0.36233883     0.43900
N563        N  0.91780134  0.92755220  0.35510953    -0.34600
N564        N  0.92573420  0.92049323  0.35419874    -0.28900
C565        C  0.92275776  0.91264747  0.34733023    -0.05000
C566        C  0.91246475  0.91487477  0.34366858     0.07200
C567        C  0.90955163  0.92438542  0.34877715     0.01000
H568        H  0.92772649  0.90583619  0.34514946     0.08700
H569        H  0.90205296  0.92871555  0.34787900     0.07800
N570        N  0.95357978  0.92351482  0.37224705    -0.36100
N571        N  0.95422235  0.93082516  0.37997248    -0.28200
C572        C  0.96358185  0.92946297  0.38530714    -0.03500
C573        C  0.96915802  0.92096045  0.38062711     0.05100
C574        C  0.96256034  0.91743861  0.37232983     0.03200
H575        H  0.96614822  0.93430710  0.39207905     0.08300
H576        H  0.96413589  0.91092060  0.36677792     0.07200
C577        C  0.86952142  0.65600528  0.20718692     0.80300
N578        N  0.87576583  0.64950607  0.20094820    -0.78000
C579        C  0.87263150  0.63929749  0.19852918     0.82700
N580        N  0.86325410  0.63547183  0.20263120    -0.78000
C581        C  0.85692481  0.64181059  0.20891269     0.82800
N582        N  0.85997928  0.65214104  0.21100192    -0.79700
N583        N  0.91754457  0.73759084  0.23595794    -0.27200
N584        N  0.90818653  0.74141005  0.23933256    -0.35100
C585        C  0.90046596  0.73400939  0.23743742     0.01100
C586        C  0.90512984  0.72513782  0.23246969     0.07100
C587        C  0.91598476  0.72773063  0.23167482    -0.06000
H588        H  0.89203756  0.73508397  0.23938301     0.07800
H589        H  0.92226433  0.72287925  0.22808669     0.09000
Cu590      Cu  0.90623835  0.75689828  0.24551683     0.44200
Cu591      Cu  0.93201377  0.74603591  0.23729601     0.42000
Cu592      Cu  0.93066390  0.77324502  0.24781086     0.43900
N593        N  0.90629194  0.77302645  0.25020362    -0.34600
N594        N  0.91513963  0.77894022  0.25108279    -0.28900
C595        C  0.91234555  0.78901049  0.25403867    -0.05000
C596        C  0.90123158  0.78947901  0.25502027     0.07200
C597        C  0.89765924  0.77919913  0.25253142     0.01000
H598        H  0.91798040  0.79556811  0.25525005     0.08700
H599        H  0.88939449  0.77642888  0.25236775     0.07800
N600        N  0.94510393  0.76572409  0.24344588    -0.36100
N601        N  0.94551597  0.75578080  0.23959949    -0.28200
C602        C  0.95585747  0.75320753  0.23756501    -0.03500
C603        C  0.96232000  0.76192278  0.24021964     0.05100
C604        C  0.95521310  0.76972970  0.24393014     0.03200
H605        H  0.95850950  0.74550020  0.23443995     0.08300
H606        H  0.95724438  0.77773178  0.24676363     0.07200
C607        C  0.86490827  0.85826914  0.27787163     0.80300
N608        N  0.87159751  0.86383250  0.28454908    -0.78000
C609        C  0.86829318  0.87314907  0.28925736     0.82700
N610        N  0.85833717  0.87703896  0.28693569    -0.78000
C611        C  0.85165443  0.87173076  0.28007300     0.82800
N612        N  0.85491289  0.86222346  0.27565326    -0.79700
C613        C  0.65639083  0.64477462  0.27475106     0.80300
N614        N  0.65055428  0.63981045  0.28256741    -0.78000
C615        C  0.64060697  0.64351277  0.28529630     0.82700
N616        N  0.63657976  0.65231499  0.28015067    -0.78000
C617        C  0.64247751  0.65749662  0.27250673     0.82800
N618        N  0.65236982  0.65365815  0.26977289    -0.79700
C619        C  0.64413562  0.86011507  0.20827906     0.80300
N620        N  0.63879203  0.86490027  0.20003348    -0.78000
C621        C  0.64236774  0.87432084  0.19582637     0.82700
N622        N  0.65153271  0.87880492  0.19974870    -0.78000
C623        C  0.65720184  0.87389130  0.20769417     0.82800
N624        N  0.65345245  0.86454281  0.21207286    -0.79700
N625        N  0.59312554  0.77977055  0.23396625    -0.27200
N626        N  0.60243395  0.77459094  0.23344837    -0.35100
C627        C  0.61034963  0.78179474  0.23151876     0.01100
C628        C  0.60582814  0.79201745  0.23087320     0.07100
C629        C  0.59489751  0.79038296  0.23254579    -0.06000
H630        H  0.61873445  0.77973159  0.23049336     0.07800
H631        H  0.58865585  0.79644223  0.23255191     0.09000
Cu632      Cu  0.60391941  0.75792870  0.23556336     0.44200
Cu633      Cu  0.57822169  0.77225079  0.23588577     0.42000
Cu634      Cu  0.57858874  0.74346868  0.23917349     0.43900
N635        N  0.60292538  0.74147576  0.23911273    -0.34600
N636        N  0.59368125  0.73630549  0.24043073    -0.28900
C637        C  0.59572376  0.72605259  0.24331056    -0.05000
C638        C  0.60677000  0.72465880  0.24383305     0.07200
C639        C  0.61109995  0.73459024  0.24111101     0.01000
H640        H  0.58961119  0.72012554  0.24519476     0.08700
H641        H  0.61955137  0.73674160  0.24096199     0.07800
N642        N  0.56443874  0.75242300  0.23873942    -0.36100
N643        N  0.56428189  0.76301175  0.23752053    -0.28200
C644        C  0.55397449  0.76642783  0.23775502    -0.03500
C645        C  0.54734843  0.75756539  0.23924556     0.05100
C646        C  0.55425309  0.74882462  0.23983530     0.03200
H647        H  0.55148706  0.77475558  0.23702393     0.08300
H648        H  0.55203661  0.74047434  0.24103770     0.07200
N649        N  0.77134272  0.92508815  0.25838849    -0.27200
N650        N  0.76947638  0.91744983  0.25119413    -0.35100
C651        C  0.77711280  0.90982610  0.25201125     0.01100
C652        C  0.78409454  0.91263753  0.26024818     0.07100
C653        C  0.78017494  0.92239328  0.26412231    -0.06000
H654        H  0.77752415  0.90272454  0.24697743     0.07800
H655        H  0.78353174  0.92721484  0.27056336     0.09000
Cu656      Cu  0.75627275  0.91720167  0.24103837     0.44200
Cu657      Cu  0.76233636  0.93927893  0.25905206     0.42000
Cu658      Cu  0.74174815  0.94170032  0.23794604     0.43900
N659        N  0.74133369  0.91791079  0.23369961    -0.34600
N660        N  0.73584777  0.92696730  0.23257647    -0.28900
C661        C  0.72599623  0.92464256  0.22863582    -0.05000
C662        C  0.72529185  0.91358244  0.22725053     0.07200
C663        C  0.73516271  0.90958010  0.23052665     0.01000
H664        H  0.71964260  0.93048478  0.22739248     0.08700
H665        H  0.73749475  0.90119950  0.23105646     0.07800
N666        N  0.74850701  0.95467746  0.24612295    -0.36100
N667        N  0.75511099  0.95373859  0.25444020    -0.28200
C668        C  0.75772963  0.96365787  0.25797405    -0.03500
C669        C  0.75285583  0.97125276  0.25136471     0.05100
C670        C  0.74706117  0.96519817  0.24395363     0.03200
H671        H  0.76321051  0.96520520  0.26459090     0.08300
H672        H  0.74242843  0.96819921  0.23720180     0.07200
N673        N  0.73491908  0.59304213  0.24658364    -0.27200
N674        N  0.74083896  0.60189907  0.24711799    -0.35100
C675        C  0.73451409  0.61021361  0.25005185     0.01100
C676        C  0.72410178  0.60642773  0.25140385     0.07100
C677        C  0.72465548  0.59551027  0.24910460    -0.06000
H678        H  0.73731992  0.61837125  0.25128752     0.07800
H679        H  0.71812237  0.58975460  0.24943202     0.09000
Cu680      Cu  0.75731470  0.60228496  0.24413305     0.44200
Cu681      Cu  0.74120439  0.57782852  0.24333323     0.42000
Cu682      Cu  0.77016521  0.57647873  0.23953413     0.43900
N683        N  0.77361784  0.60057575  0.24070855    -0.34600
N684        N  0.77832889  0.59115165  0.23906800    -0.28900
C685        C  0.78876185  0.59282423  0.23658854    -0.05000
C686        C  0.79069746  0.60382483  0.23662997     0.07200
C687        C  0.78091587  0.60848566  0.23928543     0.01000
H688        H  0.79443528  0.58652549  0.23455692     0.08700
H689        H  0.77914339  0.61700393  0.23976089     0.07800
N690        N  0.76025076  0.56294643  0.24040569    -0.36100
N691        N  0.74968063  0.56343403  0.24176877    -0.28200
C692        C  0.74573432  0.55333918  0.24246100    -0.03500
C693        C  0.75422009  0.54616757  0.24145700     0.05100
C694        C  0.76329128  0.55252978  0.24014483     0.03200
H695        H  0.73733706  0.55136538  0.24376829     0.08300
H696        H  0.77152815  0.54978407  0.23929012     0.07200
C697        C  0.79636883  0.14733630  0.34503725     0.80300
N698        N  0.79238703  0.15676257  0.34898719    -0.78000
C699        C  0.79490756  0.16005439  0.35915210     0.82700
N700        N  0.80170982  0.15393592  0.36522150    -0.78000
C701        C  0.80594673  0.14465580  0.36121935     0.82800
N702        N  0.80315365  0.14132022  0.35117975    -0.79700
C703        C  0.72147857  0.15596280  0.12939635     0.80300
N704        N  0.72441682  0.15205136  0.13918906    -0.78000
C705        C  0.72122601  0.14207055  0.14236132     0.82700
N706        N  0.71491560  0.13605361  0.13571746    -0.78000
C707        C  0.71167725  0.13996453  0.12601621     0.82800
N708        N  0.71502117  0.14991643  0.12291437    -0.79700
C709        C  0.71900937  0.35752542  0.35712550     0.80300
N710        N  0.72312380  0.36048212  0.34739722    -0.78000
C711        C  0.71944095  0.36953734  0.34243475     0.82700
N712        N  0.71154480  0.37548727  0.34709636    -0.78000
C713        C  0.70751029  0.37271767  0.35685978     0.82800
N714        N  0.71136397  0.36377687  0.36188466    -0.79700
C715        C  0.78975322  0.36926127  0.14179681     0.80300
N716        N  0.79712310  0.37477532  0.13588551    -0.78000
C717        C  0.80157291  0.37030603  0.12695468     0.82700
N718        N  0.79840488  0.36030099  0.12383977    -0.78000
C719        C  0.79072524  0.35490120  0.12944575     0.82800
N720        N  0.78643768  0.35934379  0.13849212    -0.79700
N721        N  0.75127461  0.41831850  0.26387261    -0.27200
N722        N  0.75068321  0.40942162  0.25801824    -0.35100
C723        C  0.74736623  0.40124026  0.26431373     0.01100
C724        C  0.74583835  0.40516954  0.27463863     0.07100
C725        C  0.74841504  0.41601593  0.27406909    -0.06000
H726        H  0.74605112  0.39308377  0.26155791     0.07800
H727        H  0.74804346  0.42183331  0.28053346     0.09000
Cu728      Cu  0.75448086  0.40876834  0.24176294     0.44200
Cu729      Cu  0.75497869  0.43340861  0.25759142     0.42000
Cu730      Cu  0.75934905  0.43442363  0.22882793     0.43900
N731        N  0.75996134  0.41029537  0.22605889    -0.34600
N732        N  0.76176655  0.41967085  0.22132930    -0.28900
C733        C  0.76555466  0.41789990  0.21132752    -0.05000
C734        C  0.76616949  0.40688437  0.20970892     0.07200
C735        C  0.76255962  0.40230957  0.21920129     0.01000
H736        H  0.76769484  0.42416210  0.20565601     0.08700
H737        H  0.76192230  0.39380225  0.22100646     0.07800
N738        N  0.75751177  0.44803951  0.23837022    -0.36100
N739        N  0.75624792  0.44770787  0.24894557    -0.28200
C740        C  0.75532784  0.45785231  0.25271056    -0.03500
C741        C  0.75600113  0.46486807  0.24407572     0.05100
C742        C  0.75738591  0.45838131  0.23511907     0.03200
H743        H  0.75406515  0.45995832  0.26107628     0.08300
H744        H  0.75820673  0.46098803  0.22684262     0.07200
N745        N  0.76413156  0.27572930  0.07829635    -0.27200
N746        N  0.76601740  0.26962642  0.08681942    -0.35100
C747        C  0.76942155  0.27590958  0.09498775     0.01100
C748        C  0.76964459  0.28648298  0.09144465     0.07100
C749        C  0.76624812  0.28606466  0.08082618    -0.06000
H750        H  0.77140895  0.27302180  0.10295393     0.07800
H751        H  0.76525463  0.29279195  0.07538818     0.09000
Cu752      Cu  0.76295495  0.25319128  0.08727159     0.44200
Cu753      Cu  0.75865404  0.26974449  0.06365102     0.42000
Cu754      Cu  0.74940302  0.24207351  0.06392862     0.43900
N755        N  0.75642671  0.23780350  0.08677900    -0.34600
N756        N  0.75094109  0.23397308  0.07848032    -0.28900
C757        C  0.74673575  0.22434235  0.08116270    -0.05000
C758        C  0.74978652  0.22195290  0.09163625     0.07200
C759        C  0.75599276  0.23064927  0.09489873     0.01000
H760        H  0.74162234  0.21956537  0.07597397     0.08700
H761        H  0.75963102  0.23186278  0.10272723     0.07800
N762        N  0.75059926  0.25127987  0.05001899    -0.36100
N763        N  0.75401035  0.26138308  0.04990589    -0.28200
C764        C  0.75462262  0.26477305  0.03962912    -0.03500
C765        C  0.75147929  0.25638803  0.03296372     0.05100
C766        C  0.74896176  0.24797418  0.03982001     0.03200
H767        H  0.75744803  0.27265018  0.03717343     0.08300
H768        H  0.74649099  0.23991889  0.03754080     0.07200
N769        N  0.75240775  0.09698423  0.22388613    -0.27200
N770        N  0.75451507  0.10650822  0.22822051    -0.35100
C771        C  0.75163209  0.11427528  0.22121408     0.01100
C772        C  0.74753153  0.10939814  0.21204493     0.07100
C773        C  0.74815160  0.09844418  0.21401982    -0.06000
H774        H  0.75250217  0.12282054  0.22265850     0.07800
H775        H  0.74578270  0.09200637  0.20863493     0.09000
Cu776      Cu  0.76135847  0.10857629  0.24340893     0.44200
Cu777      Cu  0.75549379  0.08234007  0.23139931     0.42000
Cu778      Cu  0.76838001  0.08395678  0.25738567     0.43900
N779        N  0.76806732  0.10825065  0.25878761    -0.34600
N780        N  0.77057323  0.09922179  0.26386028    -0.28900
C781        C  0.77444177  0.10164377  0.27369308    -0.05000
C782        C  0.77442824  0.11273387  0.27487952     0.07200
C783        C  0.77033478  0.11667356  0.26526749     0.01000
H784        H  0.77696410  0.09575461  0.27960136     0.08700
H785        H  0.76903430  0.12503137  0.26317285     0.07800
N786        N  0.76451353  0.06950829  0.24990577    -0.36100
N787        N  0.75954842  0.06888405  0.24049880    -0.28200
C788        C  0.75759468  0.05845218  0.23822366    -0.03500
C789        C  0.76157005  0.05220743  0.24658153     0.05100
C790        C  0.76594110  0.05950468  0.25381437     0.03200
H791        H  0.75339998  0.05562898  0.23110291     0.08300
H792        H  0.76970621  0.05768789  0.26147470     0.07200
N793        N  0.76270075  0.23840783  0.40972893    -0.27200
N794        N  0.75770285  0.24186142  0.40097509    -0.35100
C795        C  0.75896696  0.23452774  0.39307619     0.01100
C796        C  0.76524611  0.22611419  0.39693058     0.07100
C797        C  0.76747243  0.22890431  0.40753498    -0.06000
H798        H  0.75563663  0.23532404  0.38506665     0.07800
H799        H  0.77224854  0.22438038  0.41324563     0.09000
Cu800      Cu  0.75010012  0.25679727  0.39984629     0.44200
Cu801      Cu  0.76211117  0.24638021  0.42450385     0.42000
Cu802      Cu  0.74618226  0.27094171  0.42485338     0.43900
N803        N  0.74446367  0.27260274  0.40068674    -0.34600
N804        N  0.74300313  0.27778324  0.40988821    -0.28900
C805        C  0.73978843  0.28793665  0.40777695    -0.05000
C806        C  0.73921571  0.28921909  0.39671219     0.07200
C807        C  0.74224271  0.27933737  0.39246662     0.01000
H808        H  0.73822063  0.29400821  0.41383241     0.08700
H809        H  0.74294126  0.27726534  0.38405201     0.07800
N810        N  0.75142565  0.26304939  0.43867794    -0.36100
N811        N  0.75774711  0.25446874  0.43856331    -0.28200
C812        C  0.76006860  0.25168992  0.44878885    -0.03500
C813        C  0.75484467  0.25875773  0.45571138     0.05100
C814        C  0.74940743  0.26581342  0.44896562     0.03200
H815        H  0.76515342  0.24495358  0.45102301     0.08300
H816        H  0.74431958  0.27248849  0.45135791     0.07200
C817        C  0.63596198  0.22349626  0.84320577     0.80300
N818        N  0.64522832  0.22791860  0.84711101    -0.78000
C819        C  0.64925803  0.22466672  0.85677615     0.82700
N820        N  0.64401000  0.21695169  0.86251867    -0.78000
C821        C  0.63482138  0.21240302  0.85863026     0.82800
N822        N  0.63083302  0.21571407  0.84897866    -0.79700
C823        C  0.86731755  0.29513850  0.84670896     0.80300
N824        N  0.87370939  0.30083979  0.85355297    -0.78000
C825        C  0.86978649  0.30480598  0.86294811     0.82700
N826        N  0.85951469  0.30249783  0.86591871    -0.78000
C827        C  0.85310602  0.29647398  0.85937109     0.82800
N828        N  0.85692775  0.29307230  0.84965577    -0.79700
N829        N  0.72900405  0.25519085  0.90613730    -0.27200
N830        N  0.73398768  0.25641002  0.89679793    -0.35100
C831        C  0.72704971  0.25386905  0.88881059     0.01100
C832        C  0.71722060  0.25098886  0.89334267     0.07100
C833        C  0.71878990  0.25197723  0.90434674    -0.06000
H834        H  0.72900896  0.25407115  0.88033958     0.07800
H835        H  0.71294799  0.25044330  0.91060420     0.09000
Cu836      Cu  0.74998455  0.26175130  0.89544317     0.44200
Cu837      Cu  0.73630216  0.25747593  0.92102174     0.42000
Cu838      Cu  0.76398703  0.26620738  0.92093387     0.43900
N839        N  0.76580683  0.26764276  0.89663173    -0.34600
N840        N  0.77083335  0.26915384  0.90592019    -0.28900
C841        C  0.78086998  0.27281277  0.90399855    -0.05000
C842        C  0.78229448  0.27374573  0.89297032     0.07200
C843        C  0.77254682  0.27039746  0.88855540     0.01000
H844        H  0.78674911  0.27456685  0.91018483     0.08700
H845        H  0.77052330  0.26997309  0.88010635     0.07800
N846        N  0.75554385  0.26259041  0.93494943    -0.36100
N847        N  0.74537876  0.25935902  0.93495149    -0.28200
C848        C  0.74227454  0.25744613  0.94515937    -0.03500
C849        C  0.75089532  0.25959616  0.95188237     0.05100
C850        C  0.75917372  0.26285627  0.94517579     0.03200
H851        H  0.73434707  0.25466075  0.94750824     0.08300
H852        H  0.76724630  0.26517718  0.94754572     0.07200
C853        C  0.63819136  0.28990447  0.63763335     0.80300
N854        N  0.63242866  0.29671507  0.63128856    -0.78000
C855        C  0.63658401  0.30019156  0.62178018     0.82700
N856        N  0.64649431  0.29676470  0.61862786    -0.78000
C857        C  0.65221410  0.28978263  0.62483813     0.82800
N858        N  0.64803414  0.28640508  0.63436626    -0.79700
C859        C  0.86801844  0.21463973  0.64813297     0.80300
N860        N  0.85888114  0.21900807  0.64390382    -0.78000
C861        C  0.85588171  0.21675943  0.63358754     0.82700
N862        N  0.86213763  0.21011357  0.62749085    -0.78000
C863        C  0.87126644  0.20571577  0.63167148     0.82800
N864        N  0.87416310  0.20798850  0.64197398    -0.79700
N865        N  0.77730431  0.24921724  0.58385014    -0.27200
N866        N  0.77264836  0.25221708  0.59296966    -0.35100
C867        C  0.77925235  0.24988795  0.60127373     0.01100
C868        C  0.78854760  0.24521383  0.59723778     0.07100
C869        C  0.78702305  0.24491852  0.58616030    -0.06000
H870        H  0.77739325  0.25141526  0.60963679     0.07800
H871        H  0.79258867  0.24180911  0.58022347     0.09000
Cu872      Cu  0.75747725  0.25933987  0.59388790     0.44200
Cu873      Cu  0.77023944  0.25118450  0.56859267     0.42000
Cu874      Cu  0.74602549  0.26741619  0.56851876     0.43900
N875        N  0.74227017  0.26627911  0.59242437    -0.34600
N876        N  0.73823266  0.26944770  0.58308954    -0.28900
C877        C  0.72810799  0.27300847  0.58459000    -0.05000
C878        C  0.72563913  0.27201920  0.59538706     0.07200
C879        C  0.73477706  0.26772046  0.60014422     0.01000
H880        H  0.72277712  0.27564644  0.57822831     0.08700
H881        H  0.73576630  0.26548165  0.60849278     0.07800
N882        N  0.75342348  0.26198056  0.55462632    -0.36100
N883        N  0.76182866  0.25543632  0.55453856    -0.28200
C884        C  0.76404264  0.25282303  0.54422650    -0.03500
C885        C  0.75682183  0.25816028  0.53749050     0.05100
C886        C  0.75025957  0.26390722  0.54445224     0.03200
H887        H  0.77053277  0.24751229  0.54179812     0.08300
H888        H  0.74368379  0.26922768  0.54229396     0.07200
N889        N  0.91591972  0.23985122  0.73057927    -0.27200
N890        N  0.90734142  0.24561707  0.73314694    -0.35100
C891        C  0.89962023  0.24396260  0.72571316     0.01100
C892        C  0.90333197  0.23654402  0.71819941     0.07100
C893        C  0.91370704  0.23406611  0.72165913    -0.06000
H894        H  0.89190273  0.24801600  0.72571805     0.07800
H895        H  0.91934783  0.22862044  0.71786829     0.09000
Cu896      Cu  0.90625000  0.25500033  0.74699476     0.44200
Cu897      Cu  0.93077835  0.24162395  0.73825104     0.42000
Cu898      Cu  0.93128458  0.26140520  0.75995321     0.43900
N899        N  0.90714813  0.26248337  0.76197233    -0.34600
N900        N  0.91639046  0.26508951  0.76659285    -0.28900
C901        C  0.91439495  0.26941849  0.77633093    -0.05000
C902        C  0.90335156  0.26939102  0.77803244     0.07200
C903        C  0.89902071  0.26494034  0.76872991     0.01000
H904        H  0.92055215  0.27209524  0.78189281     0.08700
H905        H  0.89060129  0.26330654  0.76712768     0.07800
N906        N  0.94501573  0.25541969  0.75252191    -0.36100
N907        N  0.94488412  0.24797827  0.74487076    -0.28200
C908        C  0.95508840  0.24602372  0.74172540    -0.03500
C909        C  0.96192155  0.25256558  0.74765533     0.05100
C910        C  0.95527782  0.25839807  0.75442777     0.03200
H911        H  0.95735330  0.24045057  0.73541117     0.08300
H912        H  0.95771287  0.26442965  0.76024677     0.07200
N913        N  0.59150088  0.26251826  0.71871070    -0.27200
N914        N  0.60058241  0.26148833  0.72420006    -0.35100
C915        C  0.60893269  0.26390072  0.71769827     0.01100
C916        C  0.60488589  0.26647911  0.70761706     0.07100
C917        C  0.59382150  0.26543984  0.70855941    -0.06000
H918        H  0.61729179  0.26387555  0.72015298     0.07800
H919        H  0.58787418  0.26685832  0.70235693     0.09000
Cu920      Cu  0.60111816  0.25645939  0.74014578     0.44200
Cu921      Cu  0.57624443  0.26039362  0.72517663     0.42000
Cu922      Cu  0.57529720  0.24734686  0.75089781     0.43900
N923        N  0.59920621  0.24984382  0.75539681    -0.34600
N924        N  0.58989868  0.24625728  0.75918450    -0.28900
C925        C  0.59143217  0.24250635  0.76924718    -0.05000
C926        C  0.60218716  0.24382876  0.77191325     0.07200
C927        C  0.60688516  0.24849832  0.76295592     0.01000
H928        H  0.58514341  0.23928584  0.77434026     0.08700
H929        H  0.61522281  0.25081987  0.76203783     0.07800
N930        N  0.56154310  0.25170129  0.74226315    -0.36100
N931        N  0.56192071  0.25713938  0.73313075    -0.28200
C932        C  0.55183252  0.25988478  0.73020347    -0.03500
C933        C  0.54466931  0.25581301  0.73776182     0.05100
C934        C  0.55117289  0.25060045  0.74523816     0.03200
H935        H  0.54989911  0.26468381  0.72319081     0.08300
H936        H  0.54856523  0.24649873  0.75247286     0.07200
C937        C  0.14082451  0.35486126  0.78020877     0.80300
N938        N  0.15110682  0.35757937  0.77747113    -0.78000
C939        C  0.15559124  0.36688007  0.78123164     0.82700
N940        N  0.14972255  0.37334624  0.78781840    -0.78000
C941        C  0.13958254  0.37060751  0.79080267     0.82800
N942        N  0.13516986  0.36134689  0.78699123    -0.79700
C943        C  0.14313055  0.15804916  0.70980205     0.80300
N944        N  0.13818983  0.15319853  0.70133278    -0.78000
C945        C  0.14173945  0.14353108  0.69764446     0.82700
N946        N  0.15054319  0.13893284  0.70225215    -0.78000
C947        C  0.15563112  0.14380141  0.71065261     0.82800
N948        N  0.15177340  0.15329290  0.71453818    -0.79700
C949        C  0.35545623  0.14048431  0.77808808     0.80300
N950        N  0.36143686  0.13437240  0.78493023    -0.78000
C951        C  0.37062483  0.13834933  0.78940243     0.82700
N952        N  0.37407962  0.14833786  0.78642267    -0.78000
C953        C  0.36834641  0.15448064  0.77935395     0.82800
N954        N  0.35882485  0.15058964  0.77553210    -0.79700
C955        C  0.34891610  0.36723673  0.70359286     0.80300
N956        N  0.35499770  0.37336211  0.69684907    -0.78000
C957        C  0.36544080  0.37074992  0.69486097     0.82700
N958        N  0.36980133  0.36197406  0.69972719    -0.78000
C959        C  0.36379990  0.35569158  0.70637995     0.82800
N960        N  0.35330590  0.35833827  0.70832797    -0.79700
N961        N  0.41674438  0.27614273  0.73251052    -0.27200
N962        N  0.40739160  0.27116394  0.73368489    -0.35100
C963        C  0.39938751  0.27823443  0.73158535     0.01100
C964        C  0.40390746  0.28818888  0.72906926     0.07100
C965        C  0.41494317  0.28650468  0.72980210    -0.06000
H966        H  0.39090953  0.27630164  0.73191210     0.07800
H967        H  0.42122588  0.29241426  0.72852836     0.09000
Cu968      Cu  0.40621955  0.25505918  0.73874226     0.44200
Cu969      Cu  0.43158409  0.26856862  0.73468682     0.42000
Cu970      Cu  0.43160796  0.24305603  0.74851318     0.43900
N971        N  0.40751358  0.23953593  0.74535456    -0.34600
N972        N  0.41658025  0.23543977  0.74923052    -0.28900
C973        C  0.41453056  0.22558856  0.75330949    -0.05000
C974        C  0.40368224  0.22325600  0.75190545     0.07200
C975        C  0.39951155  0.23230320  0.74679160     0.01000
H976        H  0.42050672  0.22050504  0.75709825     0.08700
H977        H  0.39124246  0.23356935  0.74436469     0.07800
N978        N  0.44571789  0.25131445  0.74443861    -0.36100
N979        N  0.44561024  0.26018685  0.73856665    -0.28200
C980        C  0.45582279  0.26306807  0.73633750    -0.03500
C981        C  0.46283459  0.25590058  0.74132002     0.05100
C982        C  0.45605059  0.24855208  0.74641114     0.03200
H983        H  0.45797034  0.26995796  0.73145575     0.08300
H984        H  0.45842750  0.24171042  0.75125896     0.07200
N985        N  0.27553191  0.09008670  0.75113239    -0.27200
N986        N  0.27039036  0.09939380  0.75031259    -0.35100
C987        C  0.27736842  0.10749268  0.75218588     0.01100
C988        C  0.28740010  0.10310494  0.75429303     0.07100
C989        C  0.28594223  0.09204629  0.75357203    -0.06000
H990        H  0.27527660  0.11595219  0.75210658     0.07800
H991        H  0.29199978  0.08588771  0.75475334     0.09000
Cu992      Cu  0.25408281  0.10078323  0.74681759     0.44200
Cu993      Cu  0.26803790  0.07515454  0.74900641     0.42000
Cu994      Cu  0.23903492  0.07601366  0.74431398     0.43900
N995        N  0.23774162  0.10027034  0.74325707    -0.34600
N996        N  0.23219986  0.09120366  0.74234684    -0.28900
C997        C  0.22198208  0.09358339  0.73955656    -0.05000
C998        C  0.22107044  0.10467411  0.73869244     0.07200
C999        C  0.23120711  0.10865399  0.74109300     0.01000
H1000       H  0.21574885  0.08767742  0.73800869     0.08700
H1001       H  0.23372298  0.11700298  0.74096931     0.07800
N1002       N  0.24786606  0.06181579  0.74567140    -0.36100
N1003       N  0.25843664  0.06145411  0.74706541    -0.28200
C1004       C  0.26160395  0.05105990  0.74714817    -0.03500
C1005       C  0.25259056  0.04455665  0.74583233     0.05100
C1006       C  0.24403990  0.05168803  0.74495934     0.03200
H1007       H  0.26987030  0.04843157  0.74804605     0.08300
H1008       H  0.23563055  0.04965785  0.74383506     0.07200
N1009       N  0.08837179  0.27850115  0.74628117    -0.27200
N1010       N  0.09773166  0.27352082  0.74516438    -0.35100
C1011       C  0.10575128  0.28043582  0.74755103     0.01100
C1012       C  0.10122945  0.29024622  0.75031015     0.07100
C1013       C  0.09019679  0.28873859  0.74941415    -0.06000
H1014       H  0.11421676  0.27838547  0.74759416     0.07800
H1015       H  0.08396467  0.29456730  0.75116952     0.09000
Cu1016     Cu  0.09917780  0.25736513  0.74112474     0.44200
Cu1017     Cu  0.07354972  0.27090207  0.74411569     0.42000
Cu1018     Cu  0.07428549  0.24218128  0.73856508     0.43900
N1019       N  0.09857140  0.24102155  0.73767413    -0.34600
N1020       N  0.08951263  0.23544326  0.73694241    -0.28900
C1021       C  0.09189832  0.22512336  0.73461284    -0.05000
C1022       C  0.10298766  0.22418399  0.73376751     0.07200
C1023       C  0.10695826  0.23442009  0.73575773     0.01000
H1024       H  0.08600027  0.21881978  0.73345182     0.08700
H1025       H  0.11529878  0.23691971  0.73564949     0.07800
N1026       N  0.06010752  0.25094469  0.74002962    -0.36100
N1027       N  0.05984368  0.26141787  0.74204278    -0.28200
C1028       C  0.04949668  0.26458721  0.74278139    -0.03500
C1029       C  0.04294640  0.25570105  0.74113721     0.05100
C1030       C  0.04993816  0.24718785  0.73941262     0.03200
H1031       H  0.04692042  0.27273315  0.74457594     0.08300
H1032       H  0.04779590  0.23883499  0.73805493     0.07200
N1033       N  0.23114820  0.41962363  0.74692951    -0.27200
N1034       N  0.23372870  0.41085173  0.74145215    -0.35100
C1035       C  0.22698855  0.40282446  0.74419766     0.01100
C1036       C  0.21988371  0.40661049  0.75193026     0.07100
C1037       C  0.22277697  0.41732528  0.75345810    -0.06000
H1038       H  0.22734472  0.39476932  0.74091196     0.07800
H1039       H  0.21914795  0.42299808  0.75896658     0.09000
Cu1040     Cu  0.24703547  0.40967950  0.73141524     0.44200
Cu1041     Cu  0.23902993  0.43435967  0.74493358     0.42000
Cu1042     Cu  0.26269113  0.43379219  0.72756097     0.43900
N1043       N  0.26232627  0.40963217  0.72466770    -0.34600
N1044       N  0.26829733  0.41839682  0.72362450    -0.28900
C1045       C  0.27820520  0.41548410  0.72024315    -0.05000
C1046       C  0.27845910  0.40435158  0.71904372     0.07200
C1047       C  0.26820389  0.40095447  0.72186935     0.01000
H1048       H  0.28484021  0.42101344  0.71908003     0.08700
H1049       H  0.26533176  0.39273165  0.72223756     0.07800
N1050       N  0.25551009  0.44797315  0.73315299    -0.36100
N1051       N  0.24726580  0.44814707  0.73990629    -0.28200
C1052       C  0.24501420  0.45846317  0.74244256    -0.03500
C1053       C  0.25205615  0.46518185  0.73693005     0.05100
C1054       C  0.25854332  0.45819016  0.73106442     0.03200
H1055       H  0.23871215  0.46090139  0.74797349     0.08300
H1056       H  0.26506433  0.46036481  0.72569557     0.07200
C1057       C  0.28819164  0.87116132  0.84356420     0.80300
N1058       N  0.29316059  0.87800798  0.85056144    -0.78000
C1059       C  0.29724696  0.87431864  0.86001244     0.82700
N1060       N  0.29581755  0.86387995  0.86282295    -0.78000
C1061       C  0.29075376  0.85701973  0.85600280     0.82800
N1062       N  0.28729573  0.86058342  0.84626989    -0.79700
C1063       C  0.29015702  0.63964505  0.63889509     0.80300
N1064       N  0.29705106  0.63351143  0.63304328    -0.78000
C1065       C  0.30146164  0.63735711  0.62382033     0.82700
N1066       N  0.29860726  0.64730927  0.62024614    -0.78000
C1067       C  0.29147973  0.65340700  0.62590804     0.82800
N1068       N  0.28737091  0.64963202  0.63533682    -0.79700
C1069       C  0.21974972  0.64264486  0.84135618     0.80300
N1070       N  0.21198606  0.63740795  0.84704328    -0.78000
C1071       C  0.20852872  0.64137864  0.85665737     0.82700
N1072       N  0.21295081  0.65063602  0.86052794    -0.78000
C1073       C  0.22061138  0.65599216  0.85481498     0.82800
N1074       N  0.22400491  0.65196245  0.84522389    -0.79700
N1075       N  0.24534352  0.59289325  0.76048564    -0.27200
N1076       N  0.24760989  0.60223741  0.75589611    -0.35100
C1077       C  0.24550019  0.61023809  0.76291752     0.01100
C1078       C  0.24192553  0.60572652  0.77248471     0.07100
C1079       C  0.24194226  0.59470555  0.77061903    -0.06000
H1080       H  0.24672163  0.61869922  0.76125793     0.07800
H1081       H  0.23989608  0.58843757  0.77630097     0.09000
Cu1082     Cu  0.25451880  0.60366928  0.74072791     0.44200
Cu1083     Cu  0.24745732  0.57799145  0.75304620     0.42000
Cu1084     Cu  0.26258646  0.57826388  0.72842416     0.43900
N1085       N  0.26177576  0.60248345  0.72569999    -0.34600
N1086       N  0.26445091  0.59321825  0.72115522    -0.28900
C1087       C  0.26831005  0.59514627  0.71122304    -0.05000
C1088       C  0.26822903  0.60616835  0.70945940     0.07200
C1089       C  0.26406611  0.61056815  0.71884543     0.01000
H1090       H  0.27085949  0.58896328  0.70564656     0.08700
H1091       H  0.26269676  0.61899669  0.72053028     0.07800
N1092       N  0.25823047  0.56415538  0.73628321    -0.36100
N1093       N  0.25201339  0.56403293  0.74491669    -0.28200
C1094       C  0.24982469  0.55372833  0.74751057    -0.03500
C1095       C  0.25508414  0.54698480  0.74028635     0.05100
C1096       C  0.26039030  0.55394394  0.73332971     0.03200
H1097       H  0.24473085  0.55132297  0.75417268     0.08300
H1098       H  0.26540316  0.55175440  0.72652769     0.07200
N1099       N  0.26571715  0.77612989  0.90407578    -0.27200
N1100       N  0.26510913  0.77051293  0.89504094    -0.35100
C1101       C  0.26800896  0.77679932  0.88671927     0.01100
C1102       C  0.27047984  0.78692151  0.89068002     0.07100
C1103       C  0.26893777  0.78621422  0.90171650    -0.06000
H1104       H  0.26827185  0.77419427  0.87842714     0.07800
H1105       H  0.27004092  0.79256177  0.90757791     0.09000
Cu1106     Cu  0.26015726  0.75466251  0.89429781     0.44200
Cu1107     Cu  0.26234892  0.76968646  0.91918604     0.42000
Cu1108     Cu  0.25431021  0.74147009  0.91963174     0.43900
N1109       N  0.25495773  0.73891051  0.89538606    -0.34600
N1110       N  0.25283505  0.73399420  0.90459332    -0.28900
C1111       C  0.24944460  0.72390466  0.90242726    -0.05000
C1112       C  0.24944884  0.72245992  0.89134814     0.07200
C1113       C  0.25297266  0.73214153  0.88715204     0.01000
H1114       H  0.24698458  0.71810529  0.90844609     0.08700
H1115       H  0.25382028  0.73419617  0.87872652     0.07800
N1116       N  0.25630249  0.75087977  0.93348752    -0.36100
N1117       N  0.25917759  0.76115912  0.93328049    -0.28200
C1118       C  0.25991747  0.76485190  0.94346370    -0.03500
C1119       C  0.25737852  0.75652921  0.95041430     0.05100
C1120       C  0.25514638  0.74778456  0.94383422     0.03200
H1121       H  0.26228014  0.77296906  0.94565789     0.08300
H1122       H  0.25296428  0.73973171  0.94638855     0.07200
C1123       C  0.21621669  0.86981142  0.64133675     0.80300
N1124       N  0.21038756  0.87620329  0.63465345    -0.78000
C1125       C  0.20729737  0.87259298  0.62480253     0.82700
N1126       N  0.21053019  0.86266037  0.62149148    -0.78000
C1127       C  0.21666472  0.85628229  0.62795806     0.82800
N1128       N  0.21928815  0.85981619  0.63801487    -0.79700
N1129       N  0.25059684  0.91768223  0.76608479    -0.27200
N1130       N  0.24762953  0.90846631  0.76160645    -0.35100
C1131       C  0.24986346  0.90034715  0.76843282     0.01100
C1132       C  0.25443863  0.90468701  0.77763050     0.07100
C1133       C  0.25477423  0.91568350  0.77588173    -0.06000
H1134       H  0.24855795  0.89189378  0.76669936     0.07800
H1135       H  0.25813608  0.92173660  0.78118064     0.09000
Cu1136     Cu  0.24160552  0.90728505  0.74604847     0.44200
Cu1137     Cu  0.24960645  0.93247766  0.75839998     0.42000
Cu1138     Cu  0.24295568  0.93186884  0.73006861     0.43900
N1139       N  0.23766146  0.90801391  0.72981231    -0.34600
N1140       N  0.23857324  0.91683040  0.72389597    -0.28900
C1141       C  0.23591925  0.91443562  0.71365117    -0.05000
C1142       C  0.23310964  0.90362779  0.71309380     0.07200
C1143       C  0.23429104  0.89983363  0.72351716     0.01000
H1144       H  0.23603100  0.92014940  0.70706991     0.08700
H1145       H  0.23285926  0.89170751  0.72632086     0.07800
N1146       N  0.24606409  0.94606088  0.73857494    -0.36100
N1147       N  0.24833007  0.94621821  0.74899010    -0.28200
C1148       C  0.24947263  0.95650263  0.75224347    -0.03500
C1149       C  0.24786666  0.96316276  0.74346888     0.05100
C1150       C  0.24573885  0.95628647  0.73492065     0.03200
H1151       H  0.25129475  0.95896082  0.76041511     0.08300
H1152       H  0.24393145  0.95855835  0.72670447     0.07200
N1153       N  0.26113113  0.73424243  0.57928835    -0.27200
N1154       N  0.26126272  0.73978469  0.58839929    -0.35100
C1155       C  0.26495346  0.73336645  0.59635381     0.01100
C1156       C  0.26723403  0.72329912  0.59203547     0.07100
C1157       C  0.26468748  0.72417410  0.58120525    -0.06000
H1158       H  0.26589598  0.73582944  0.60464132     0.07800
H1159       H  0.26532424  0.71792670  0.57517111     0.09000
Cu1160     Cu  0.25612223  0.75577926  0.58955235     0.44200
Cu1161     Cu  0.25614527  0.74054021  0.56457067     0.42000
Cu1162     Cu  0.24447050  0.76717501  0.56507761     0.43900
N1163       N  0.24954313  0.77125142  0.58861846    -0.34600
N1164       N  0.24496905  0.77519420  0.57983346    -0.28900
C1165       C  0.24106180  0.78507828  0.58202967    -0.05000
C1166       C  0.24333406  0.78757416  0.59268322     0.07200
C1167       C  0.24876861  0.77860714  0.59658179     0.01000
H1168       H  0.23678328  0.79006254  0.57630140     0.08700
H1169       H  0.25185426  0.77746510  0.60465249     0.07800
N1170       N  0.24644132  0.75823257  0.55099548    -0.36100
N1171       N  0.25089105  0.74854229  0.55080644    -0.28200
C1172       C  0.25181427  0.74526753  0.54049989    -0.03500
C1173       C  0.24769609  0.75324838  0.53389831     0.05100
C1174       C  0.24437370  0.76135418  0.54080740     0.03200
H1175       H  0.25551796  0.73778085  0.53797564     0.08300
H1176       H  0.24110483  0.76912295  0.53856727     0.07200
C1177       C  0.37454856  0.78602889  0.14347653     0.80300
N1178       N  0.36542315  0.78232981  0.13859852    -0.78000
C1179       C  0.36312099  0.78511979  0.12824813     0.82700
N1180       N  0.36971290  0.79203417  0.12293464    -0.78000
C1181       C  0.37864900  0.79604974  0.12781173     0.82800
N1182       N  0.38115653  0.79283660  0.13796754    -0.79700
C1183       C  0.14749552  0.71815516  0.14297588     0.80300
N1184       N  0.14306106  0.70955941  0.13783299    -0.78000
C1185       C  0.14810701  0.70496855  0.12927582     0.82700
N1186       N  0.15769462  0.70904174  0.12586952    -0.78000
C1187       C  0.16217635  0.71771404  0.13088779     0.82800
N1188       N  0.15704438  0.72228365  0.13945979    -0.79700
N1189       N  0.24023839  0.74844549  0.07893731    -0.27200
N1190       N  0.24632412  0.74738380  0.08763416    -0.35100
C1191       C  0.24010253  0.74410044  0.09590914     0.01100
C1192       C  0.22951058  0.74320178  0.09237831     0.07100
C1193       C  0.22994946  0.74608092  0.08155761    -0.06000
H1194       H  0.24309506  0.74242755  0.10390102     0.07800
H1195       H  0.22328339  0.74637406  0.07597583     0.09000
Cu1196     Cu  0.26281636  0.75082533  0.08809268     0.44200
Cu1197     Cu  0.24630405  0.75235249  0.06362955     0.42000
Cu1198     Cu  0.27506625  0.75700175  0.06240072     0.43900
N1199       N  0.27897843  0.75525972  0.08635750    -0.34600
N1200       N  0.28345424  0.75723134  0.07689814    -0.28900
C1201       C  0.29384757  0.75997420  0.07838630    -0.05000
C1202       C  0.29604629  0.75991040  0.08933185     0.07200
C1203       C  0.28640855  0.75685789  0.09413600     0.01000
H1204       H  0.29933677  0.76210077  0.07197436     0.08700
H1205       H  0.28484908  0.75610928  0.10266671     0.07800
N1206       N  0.26521755  0.75685183  0.04884606    -0.36100
N1207       N  0.25469138  0.75513747  0.04919711    -0.28200
C1208       C  0.25082030  0.75518014  0.03903289    -0.03500
C1209       C  0.25930175  0.75706372  0.03198269     0.05100
C1210       C  0.26829038  0.75807855  0.03851460     0.03200
H1211       H  0.24246166  0.75379154  0.03689675     0.08300
H1212       H  0.27652667  0.75938797  0.03591997     0.07200
C1213       C  0.35486614  0.72091508  0.36016388     0.80300
N1214       N  0.35936060  0.72426115  0.35074475    -0.78000
C1215       C  0.36900229  0.72015845  0.34752884     0.82700
N1216       N  0.37410706  0.71277855  0.35374590    -0.78000
C1217       C  0.36959274  0.70920582  0.36302331     0.82800
N1218       N  0.35996258  0.71333887  0.36624322    -0.79700
C1219       C  0.13712212  0.78633111  0.34205341     0.80300
N1220       N  0.14698138  0.78306350  0.34564139    -0.78000
C1221       C  0.15061696  0.78615924  0.35551026     0.82700
N1222       N  0.14454885  0.79285397  0.36165662    -0.78000
C1223       C  0.13496470  0.79664430  0.35800439     0.82800
N1224       N  0.13120176  0.79319866  0.34827629    -0.79700
N1225       N  0.23179598  0.76316128  0.40596636    -0.27200
N1226       N  0.23720478  0.76220466  0.39683972    -0.35100
C1227       C  0.23048973  0.76432422  0.38856186     0.01100
C1228       C  0.22034052  0.76663437  0.39267630     0.07100
C1229       C  0.22150553  0.76578219  0.40374227    -0.06000
H1230       H  0.23280938  0.76417222  0.38017429     0.07800
H1231       H  0.21530306  0.76694884  0.40975429     0.09000
Cu1232     Cu  0.25343223  0.75774783  0.39621713     0.44200
Cu1233     Cu  0.23866046  0.76111744  0.42109920     0.42000
Cu1234     Cu  0.26702042  0.75465008  0.42224528     0.43900
N1235       N  0.26954004  0.75315135  0.39796866    -0.34600
N1236       N  0.27450667  0.75229285  0.40737069    -0.28900
C1237       C  0.28480581  0.74930520  0.40566050    -0.05000
C1238       C  0.28641334  0.74810315  0.39467016     0.07200
C1239       C  0.27653584  0.75060469  0.39006070     0.01000
H1240       H  0.29067021  0.74800254  0.41196430     0.08700
H1241       H  0.27454831  0.75047123  0.38158679     0.07800
N1242       N  0.25745374  0.75673784  0.43591907    -0.36100
N1243       N  0.24707312  0.75914006  0.43543950    -0.28200
C1244       C  0.24309807  0.75975091  0.44550927    -0.03500
C1245       C  0.25134661  0.75759993  0.45269298     0.05100
C1246       C  0.26033728  0.75570882  0.44633903     0.03200
H1247       H  0.23475506  0.76142641  0.44745736     0.08300
H1248       H  0.26834643  0.75360108  0.44909315     0.07200
N1249       N  0.08989589  0.74521698  0.21856193    -0.27200
N1250       N  0.09854136  0.74393028  0.22467999    -0.35100
C1251       C  0.10695712  0.74118322  0.21839685     0.01100
C1252       C  0.10353236  0.74080459  0.20776724     0.07100
C1253       C  0.09265423  0.74342640  0.20820782    -0.06000
H1254       H  0.11501876  0.73965778  0.22134945     0.07800
H1255       H  0.08715367  0.74405988  0.20146431     0.09000
Cu1256     Cu  0.09884786  0.74689974  0.24120692     0.44200
Cu1257     Cu  0.07471113  0.74942479  0.22462864     0.42000
Cu1258     Cu  0.07485577  0.75945571  0.25205342     0.43900
N1259       N  0.09799150  0.75328769  0.25671604    -0.34600
N1260       N  0.08944023  0.75846683  0.26040497    -0.28900
C1261       C  0.09174806  0.76249749  0.27021717    -0.05000
C1262       C  0.10221533  0.75961710  0.27295763     0.07200
C1263       C  0.10588012  0.75372051  0.26417878     0.01000
H1264       H  0.08622323  0.76725378  0.27499254     0.08700
H1265       H  0.11375695  0.75010853  0.26321344     0.07800
N1266       N  0.06085205  0.75789907  0.24283569    -0.36100
N1267       N  0.06072839  0.75402751  0.23289148    -0.28200
C1268       C  0.05042564  0.75359968  0.22941451    -0.03500
C1269       C  0.04377808  0.75742881  0.23753099     0.05100
C1270       C  0.05066112  0.76007899  0.24590466     0.03200
H1271       H  0.04794172  0.75068114  0.22157013     0.08300
H1272       H  0.04840140  0.76322159  0.25373084     0.07200
N1273       N  0.42119306  0.74930402  0.26920300    -0.27200
N1274       N  0.41189624  0.74933410  0.26395040    -0.35100
C1275       C  0.40396880  0.74650654  0.27078684     0.01100
C1276       C  0.40844133  0.74462643  0.28083117     0.07100
C1277       C  0.41937707  0.74650937  0.27952884    -0.06000
H1278       H  0.39556380  0.74576227  0.26857873     0.07800
H1279       H  0.42558544  0.74578266  0.28562304     0.09000
Cu1280     Cu  0.41011879  0.75333544  0.24773822     0.44200
Cu1281     Cu  0.43606100  0.75256587  0.26205764     0.42000
Cu1282     Cu  0.43422340  0.76309611  0.23504527     0.43900
N1283       N  0.41037225  0.75942149  0.23209560    -0.34600
N1284       N  0.41912114  0.76372102  0.22782003    -0.28900
C1285       C  0.41676480  0.76738132  0.21790655    -0.05000
C1286       C  0.40606584  0.76503664  0.21561775     0.07200
C1287       C  0.40227336  0.75998573  0.22486366     0.01000
H1288       H  0.42252555  0.77124444  0.21263491     0.08700
H1289       H  0.39427315  0.75676928  0.22617639     0.07800
N1290       N  0.44876806  0.75959900  0.24259328    -0.36100
N1291       N  0.44951304  0.75564621  0.25246033    -0.28200
C1292       C  0.46000304  0.75402386  0.25481472    -0.03500
C1293       C  0.46610859  0.75711483  0.24600044     0.05100
C1294       C  0.45872787  0.76060595  0.23841819     0.03200
H1295       H  0.46297382  0.75090314  0.26239280     0.08300
H1296       H  0.46047465  0.76365841  0.23044205     0.07200
C1297       C  0.10816729  0.76256208  0.28301653     0.01400
C1298       C  0.11852666  0.76737647  0.28253951     0.04200
C1299       C  0.12371280  0.77083529  0.29207111    -0.11800
C1300       C  0.11858395  0.76968537  0.30212762     0.23500
C1301       C  0.10844530  0.76459135  0.30267633    -0.12400
C1302       C  0.10331550  0.76092738  0.29320845     0.04900
C1303       C  0.12372053  0.77402491  0.31212533     0.27300
C1304       C  0.12969674  0.76719718  0.31892820    -0.13100
C1305       C  0.13383847  0.77109161  0.32879226     0.05400
C1306       C  0.13267795  0.78212726  0.33162874    -0.09100
C1307       C  0.12709959  0.78906678  0.32445784     0.06300
C1308       C  0.12239314  0.78494575  0.31494432    -0.13400
Br1309     Br  0.10154243  0.76275727  0.31648743    -0.05500
Br1310     Br  0.12552553  0.76990869  0.26888633     0.00100
Br1311     Br  0.14030639  0.76090123  0.33862680     0.00600
Br1312     Br  0.11398813  0.79423185  0.30571062    -0.03800
Br1313     Br  0.08988070  0.75314083  0.29440640     0.00700
Br1314     Br  0.13784919  0.77731673  0.29143095    -0.03100
Br1315     Br  0.13219123  0.75244788  0.31461931    -0.04000
Br1316     Br  0.12632427  0.80438746  0.32715805     0.00000
C1317       C  0.16097704  0.78213628  0.35980915     0.01400
C1318       C  0.17081496  0.78593599  0.35558897     0.04200
C1319       C  0.18063141  0.78311775  0.36058177    -0.11800
C1320       C  0.18064454  0.77648657  0.36980457     0.23500
C1321       C  0.17082286  0.77240639  0.37380614    -0.12400
C1322       C  0.16101923  0.77520518  0.36880531     0.04900
C1323       C  0.19093955  0.77405537  0.37549048     0.27300
C1324       C  0.19686282  0.76473381  0.37287260    -0.13100
C1325       C  0.20644936  0.76228020  0.37847525     0.05400
C1326       C  0.21031264  0.76928218  0.38661835    -0.09100
C1327       C  0.20441665  0.77873176  0.38909509     0.06300
C1328       C  0.19473041  0.78103946  0.38361062    -0.13400
Br1329     Br  0.17082457  0.76318840  0.38631190    -0.05500
Br1330     Br  0.17078951  0.79544831  0.34331062     0.00100
Br1331     Br  0.21383018  0.74894171  0.37536126     0.00600
Br1332     Br  0.18656461  0.79380224  0.38718006    -0.03800
Br1333     Br  0.14760319  0.76946687  0.37419989     0.00700
Br1334     Br  0.19408191  0.78856723  0.35501978    -0.03100
Br1335     Br  0.19171421  0.75530403  0.36161355    -0.04000
Br1336     Br  0.20976859  0.78887332  0.39963426     0.00000
C1337       C  0.34484120  0.72594778  0.36416922     0.01400
C1338       C  0.34533587  0.73383628  0.37233738     0.04200
C1339       C  0.33577953  0.73789384  0.37692660    -0.11800
C1340       C  0.32567339  0.73432653  0.37313204     0.23500
C1341       C  0.32518134  0.72689974  0.36453089    -0.12400
C1342       C  0.33475002  0.72263107  0.36013382     0.04900
C1343       C  0.31559767  0.73791656  0.37857556     0.27300
C1344       C  0.31120981  0.73164724  0.38694658    -0.13100
C1345       C  0.30162183  0.73488007  0.39210402     0.05400
C1346       C  0.29645231  0.74458889  0.38908901    -0.09100
C1347       C  0.30095766  0.75092287  0.38074687     0.06300
C1348       C  0.31044515  0.74753878  0.37546484    -0.13400
Br1349     Br  0.31135872  0.72247387  0.35894041    -0.05500
Br1350     Br  0.35911836  0.73928812  0.37703557     0.00100
Br1351     Br  0.29535356  0.72557641  0.40287286     0.00600
Br1352     Br  0.31650764  0.75608713  0.36398849    -0.03800
Br1353     Br  0.33406489  0.71199777  0.34881212     0.00700
Br1354     Br  0.33648834  0.74814935  0.38859928    -0.03100
Br1355     Br  0.31845121  0.71858778  0.39133942    -0.04000
Br1356     Br  0.29454470  0.76454965  0.37685676     0.00000
C1357       C  0.37434628  0.72404601  0.33766607     0.01400
C1358       C  0.38381015  0.73028457  0.33851065     0.04200
C1359       C  0.38940437  0.73340739  0.32916732    -0.11800
C1360       C  0.38566008  0.73015654  0.31894694     0.23500
C1361       C  0.37626050  0.72380919  0.31810187    -0.12400
C1362       C  0.37054246  0.72085305  0.32744874     0.04900
C1363       C  0.39144059  0.73373480  0.30909674     0.27300
C1364       C  0.38835329  0.74336370  0.30395925    -0.13100
C1365       C  0.39403827  0.74704068  0.29485971     0.05400
C1366       C  0.40272799  0.74096561  0.29068656    -0.09100
C1367       C  0.40575334  0.73125489  0.29582290     0.06300
C1368       C  0.40017235  0.72771028  0.30505154    -0.13400
Br1369     Br  0.37138150  0.71903502  0.30413216    -0.05500
Br1370     Br  0.38900222  0.73470634  0.35250193     0.00100
Br1371     Br  0.39022498  0.76072755  0.28854000     0.00600
Br1372     Br  0.40441077  0.71456200  0.31218958    -0.03800
Br1373     Br  0.35770384  0.71214679  0.32630717     0.00700
Br1374     Br  0.40222036  0.74215380  0.33031776    -0.03100
Br1375     Br  0.37632560  0.75152764  0.30951917    -0.04000
Br1376     Br  0.41717640  0.72245241  0.28997993     0.00000
C1377       C  0.17242108  0.72227605  0.12672140     0.01400
C1378       C  0.17241994  0.73210761  0.12102101     0.04200
C1379       C  0.18196619  0.73587597  0.11610552    -0.11800
C1380       C  0.19157948  0.72983326  0.11684092     0.23500
C1381       C  0.19166699  0.72021196  0.12289634    -0.12400
C1382       C  0.18211781  0.71643364  0.12778721     0.04900
C1383       C  0.20138345  0.73322753  0.11070081     0.27300
C1384       C  0.20345777  0.72874983  0.10047324    -0.13100
C1385       C  0.21275100  0.73175667  0.09464213     0.05400
C1386       C  0.21984821  0.73972576  0.09874586    -0.09100
C1387       C  0.21763018  0.74432023  0.10898055     0.06300
C1388       C  0.20858164  0.74089959  0.11499782    -0.13400
Br1389     Br  0.20487395  0.71213173  0.12430061    -0.05500
Br1390     Br  0.15917727  0.74009850  0.11942403     0.00100
Br1391     Br  0.21598482  0.72427497  0.08138420     0.00600
Br1392     Br  0.20597067  0.74669105  0.12919426    -0.03800
Br1393     Br  0.18228690  0.70324484  0.13600648     0.00700
Br1394     Br  0.18183544  0.74915238  0.10803688    -0.03100
Br1395     Br  0.19342681  0.71846537  0.09444599    -0.04000
Br1396     Br  0.22649211  0.75580792  0.11463955     0.00000
C1397       C  0.14194297  0.72272127  0.15249073     0.01400
C1398       C  0.13368116  0.73040373  0.15114790     0.04200
C1399       C  0.12758185  0.73387382  0.16009497    -0.11800
C1400       C  0.12959498  0.72953115  0.17040448     0.23500
C1401       C  0.13796935  0.72195231  0.17175406    -0.12400
C1402       C  0.14418665  0.71863962  0.16283889     0.04900
C1403       C  0.12275876  0.73269605  0.17978453     0.27300
C1404       C  0.12616549  0.74090527  0.18686273    -0.13100
C1405       C  0.11985346  0.74366861  0.19591526     0.05400
C1406       C  0.11010277  0.73811870  0.19805253    -0.09100
C1407       C  0.10672398  0.72988292  0.19090833     0.06300
C1408       C  0.11296749  0.72728538  0.18176941    -0.13400
Br1409     Br  0.14066015  0.71585600  0.18578841    -0.05500
Br1410     Br  0.13061708  0.73598376  0.13697940     0.00100
Br1411     Br  0.12445740  0.75541254  0.20504399     0.00600
Br1412     Br  0.10820752  0.71617153  0.17195993    -0.03800
Br1413     Br  0.15566112  0.70831851  0.16470905     0.00700
Br1414     Br  0.11631240  0.74441791  0.15824775    -0.03100
Br1415     Br  0.13952911  0.74836680  0.18405327    -0.04000
Br1416     Br  0.09392991  0.72155084  0.19393098     0.00000
C1417       C  0.35350313  0.78072223  0.12271600     0.01400
C1418       C  0.34308251  0.78341171  0.12636166     0.04200
C1419       C  0.33393491  0.77960257  0.12079671    -0.11800
C1420       C  0.33515121  0.77318370  0.11149169     0.23500
C1421       C  0.34556489  0.77050257  0.10783013    -0.12400
C1422       C  0.35472011  0.77421988  0.11345206     0.04900
C1423       C  0.32544829  0.76951440  0.10543732     0.27300
C1424       C  0.32073294  0.75943966  0.10770274    -0.13100
C1425       C  0.31125658  0.75619548  0.10230341     0.05400
C1426       C  0.30628111  0.76313558  0.09475014    -0.09100
C1427       C  0.31112584  0.77321059  0.09243404     0.06300
C1428       C  0.32075529  0.77628022  0.09763720    -0.13400
Br1429     Br  0.34722774  0.76187373  0.09499972    -0.05500
Br1430     Br  0.34133842  0.79284842  0.13860484     0.00100
Br1431     Br  0.30546150  0.74200400  0.10495428     0.00600
Br1432     Br  0.32758188  0.78983008  0.09416377    -0.03800
Br1433     Br  0.36894148  0.77019822  0.10858625     0.00700
Br1434     Br  0.31967965  0.78332519  0.12576981    -0.03100
Br1435     Br  0.32733323  0.75012058  0.11825472    -0.04000
Br1436     Br  0.30431918  0.78326575  0.08270486     0.00000
C1437       C  0.37748558  0.78257730  0.15463146     0.01400
C1438       C  0.37646809  0.77165879  0.15788835     0.04200
C1439       C  0.38004595  0.76840754  0.16818798    -0.11800
C1440       C  0.38512653  0.77585013  0.17511017     0.23500
C1441       C  0.38600851  0.78671951  0.17198511    -0.12400
C1442       C  0.38187804  0.79015114  0.16198705     0.04900
C1443       C  0.39000337  0.77223512  0.18548196     0.27300
C1444       C  0.38469101  0.77416537  0.19532365    -0.13100
C1445       C  0.38987938  0.77187006  0.20518712     0.05400
C1446       C  0.40025120  0.76706920  0.20526589    -0.09100
C1447       C  0.40522907  0.76451603  0.19530518     0.06300
C1448       C  0.40026863  0.76739660  0.18550839    -0.13400
Br1449     Br  0.39327954  0.79685751  0.18132229    -0.05500
Br1450     Br  0.37091635  0.76081841  0.14816299     0.00100
Br1451     Br  0.38297093  0.77617337  0.21844105     0.00600
Br1452     Br  0.40769024  0.76503088  0.17203398    -0.03800
Br1453     Br  0.38176839  0.80540138  0.15880496     0.00700
Br1454     Br  0.37823318  0.75366740  0.17282447    -0.03100
Br1455     Br  0.37033925  0.78018401  0.19519435    -0.04000
Br1456     Br  0.41858797  0.75651612  0.19481858     0.00000
C1457       C  0.24804127  0.75363416  0.52198132     0.01400
C1458       C  0.25781731  0.75593522  0.51666505     0.04200
C1459       C  0.25815935  0.75639906  0.50533049    -0.11800
C1460       C  0.24871623  0.75463286  0.49924777     0.23500
C1461       C  0.23895951  0.75222864  0.50455573    -0.12400
C1462       C  0.23862210  0.75174100  0.51590058     0.04900
C1463       C  0.24908072  0.75534380  0.48727637     0.27300
C1464       C  0.24749989  0.76533827  0.48211405    -0.13100
C1465       C  0.24821953  0.76608950  0.47080313     0.05400
C1466       C  0.25052123  0.75683431  0.46458910    -0.09100
C1467       C  0.25187048  0.74679540  0.46975669     0.06300
C1468       C  0.25117883  0.74606402  0.48106477    -0.13400
Br1469     Br  0.22610576  0.74952947  0.49622298    -0.05500
Br1470     Br  0.27070048  0.75871520  0.52493842     0.00100
Br1471     Br  0.24637422  0.77987902  0.46386722     0.00600
Br1472     Br  0.25303897  0.73233924  0.48811490    -0.03800
Br1473     Br  0.22531417  0.74827574  0.52313586     0.00700
Br1474     Br  0.27157285  0.75941106  0.49807111    -0.03100
Br1475     Br  0.24436773  0.77798759  0.49061283    -0.04000
Br1476     Br  0.25417345  0.73392839  0.46131999     0.00000
C1477       C  0.21874860  0.87365478  0.65230618     0.01400
C1478       C  0.21330611  0.86927419  0.66125600     0.04200
C1479       C  0.21516093  0.87346998  0.67165019    -0.11800
C1480       C  0.22241767  0.88209900  0.67310417     0.23500
C1481       C  0.22789759  0.88643470  0.66415148    -0.12400
C1482       C  0.22605345  0.88223628  0.65377502     0.04900
C1483       C  0.22427477  0.88679739  0.68397380     0.27300
C1484       C  0.21838665  0.89591635  0.68729215    -0.13100
C1485       C  0.22107062  0.90124003  0.69696007     0.05400
C1486       C  0.22972285  0.89748755  0.70336546    -0.09100
C1487       C  0.23527997  0.88802012  0.70024991     0.06300
C1488       C  0.23249064  0.88266798  0.69061957    -0.13400
Br1489     Br  0.23786183  0.89823004  0.66615041    -0.05500
Br1490     Br  0.20286682  0.85792820  0.65916180     0.00100
Br1491     Br  0.21261533  0.91349349  0.70150315     0.00600
Br1492     Br  0.24008032  0.86978918  0.68629638    -0.03800
Br1493     Br  0.23358858  0.88819096  0.64155565     0.00700
Br1494     Br  0.20764218  0.86757739  0.68388880    -0.03100
Br1495     Br  0.20670353  0.90114261  0.67844482    -0.04000
Br1496     Br  0.24726809  0.88271610  0.70863328     0.00000
C1497       C  0.24016320  0.79754514  0.59861425     0.01400
C1498       C  0.23440766  0.79689566  0.60843930     0.04200
C1499       C  0.23097880  0.80637116  0.61371546    -0.11800
C1500       C  0.23281414  0.81654316  0.60901604     0.23500
C1501       C  0.23857705  0.81723081  0.59925671    -0.12400
C1502       C  0.24250592  0.80781280  0.59424300     0.04900
C1503       C  0.22861126  0.82650889  0.61429182     0.27300
C1504       C  0.21763869  0.82929084  0.61330268    -0.13100
C1505       C  0.21363407  0.83866808  0.61832172     0.05400
C1506       C  0.22071156  0.84574974  0.62381336    -0.09100
C1507       C  0.23174078  0.84293565  0.62476812     0.06300
C1508       C  0.23557962  0.83321767  0.62026458    -0.13400
Br1509     Br  0.24089614  0.83112529  0.59265474    -0.05500
Br1510     Br  0.23052483  0.78309452  0.61447270     0.00100
Br1511     Br  0.19829511  0.84138321  0.61814273     0.00600
Br1512     Br  0.25044889  0.82903997  0.62219920    -0.03800
Br1513     Br  0.25167495  0.80913452  0.58174738     0.00700
Br1514     Br  0.22367945  0.80548047  0.62741815    -0.03100
Br1515     Br  0.20813094  0.82032187  0.60483299    -0.04000
Br1516     Br  0.24188876  0.85260409  0.63156988     0.00000
C1517       C  0.25758191  0.75683146  0.96235215     0.01400
C1518       C  0.26706960  0.75406149  0.96795888     0.04200
C1519       C  0.26737609  0.75461469  0.97930292    -0.11800
C1520       C  0.25812805  0.75773709  0.98513242     0.23500
C1521       C  0.24863345  0.76051830  0.97951506    -0.12400
C1522       C  0.24837484  0.76009528  0.96815432     0.04900
C1523       C  0.25830004  0.75767603  0.99716196     0.27300
C1524       C  0.25584794  0.74812358  0.00279593    -0.13100
C1525       C  0.25622724  0.74791294  0.01415203     0.05400
C1526       C  0.25899427  0.75728993  0.01999392    -0.09100
C1527       C  0.26162776  0.76681247  0.01433255     0.06300
C1528       C  0.26120214  0.76701860  0.00296339    -0.13400
Br1529     Br  0.23599326  0.76487338  0.98743376    -0.05500
Br1530     Br  0.27961982  0.74940032  0.96006168     0.00100
Br1531     Br  0.25363039  0.73455063  0.02165400     0.00600
Br1532     Br  0.26459521  0.78008283  0.99526085    -0.03800
Br1533     Br  0.23537545  0.76385012  0.96049479     0.00700
Br1534     Br  0.28047922  0.75114107  0.98691954    -0.03100
Br1535     Br  0.25208429  0.73527351  0.99486271    -0.04000
Br1536     Br  0.26569443  0.77964880  0.02213038     0.00000
C1537       C  0.22392940  0.63792522  0.83129294     0.01400
C1538       C  0.22008778  0.64159238  0.82127091     0.04200
C1539       C  0.22372892  0.63673928  0.81168601    -0.11800
C1540       C  0.23102660  0.62803654  0.81212089     0.23500
C1541       C  0.23511302  0.62458536  0.82214037    -0.12400
C1542       C  0.23168495  0.62963868  0.83170107     0.04900
C1543       C  0.23398473  0.62221866  0.80208091     0.27300
C1544       C  0.22698692  0.61431710  0.79789078    -0.13100
C1545       C  0.22943644  0.60911392  0.78810849     0.05400
C1546       C  0.23921629  0.61139333  0.78270337    -0.09100
C1547       C  0.24641810  0.61905537  0.78717901     0.06300
C1548       C  0.24365867  0.62463522  0.79667950    -0.13400
Br1549     Br  0.24523812  0.61279898  0.82274457    -0.05500
Br1550     Br  0.20964985  0.65309399  0.82072073     0.00100
Br1551     Br  0.21896553  0.59938373  0.78191723     0.00600
Br1552     Br  0.25308375  0.63566045  0.80234492    -0.03800
Br1553     Br  0.23777435  0.62539348  0.84534961     0.00700
Br1554     Br  0.21868919  0.64191419  0.79792543    -0.03100
Br1555     Br  0.21401538  0.61063299  0.80566614    -0.04000
Br1556     Br  0.26042745  0.62149456  0.78085254     0.00000
C1557       C  0.22571421  0.66575826  0.85936442     0.01400
C1558       C  0.22504859  0.67570705  0.85388976     0.04200
C1559       C  0.22977464  0.68500757  0.85839398    -0.11800
C1560       C  0.23481358  0.68447642  0.86855509     0.23500
C1561       C  0.23559290  0.67452967  0.87395964    -0.12400
C1562       C  0.23120524  0.66516115  0.86930293     0.04900
C1563       C  0.23855655  0.69447826  0.87396766     0.27300
C1564       C  0.24929137  0.69801185  0.87283821    -0.13100
C1565       C  0.25287514  0.70721409  0.87847054     0.05400
C1566       C  0.24570292  0.71291654  0.88523126    -0.09100
C1567       C  0.23487452  0.70953803  0.88607140     0.06300
C1568       C  0.23134404  0.70029892  0.88052128    -0.13400
Br1569     Br  0.24247715  0.67383842  0.88788711    -0.05500
Br1570     Br  0.21702197  0.67679857  0.84061884     0.00100
Br1571     Br  0.26771060  0.71173353  0.87721062     0.00600
Br1572     Br  0.21660164  0.69550346  0.88192405    -0.03800
Br1573     Br  0.23301179  0.65144766  0.87642112     0.00700
Br1574     Br  0.22921905  0.69855874  0.85079848    -0.03100
Br1575     Br  0.25905281  0.69012802  0.86365586    -0.04000
Br1576     Br  0.22468561  0.71784770  0.89438840     0.00000
C1577       C  0.28644783  0.63566727  0.64944246     0.01400
C1578       C  0.27920924  0.62692757  0.64996182     0.04200
C1579       C  0.27635844  0.62252328  0.66000439    -0.11800
C1580       C  0.28067793  0.62690087  0.66956870     0.23500
C1581       C  0.28789644  0.63566440  0.66905034    -0.12400
C1582       C  0.29085874  0.63996979  0.65899144     0.04900
C1583       C  0.27777091  0.62209577  0.68012558     0.27300
C1584       C  0.26783803  0.62464978  0.68497598    -0.13100
C1585       C  0.26461209  0.61935205  0.69446853     0.05400
C1586       C  0.27161676  0.61190350  0.69952298    -0.09100
C1587       C  0.28181025  0.60976138  0.69488260     0.06300
C1588       C  0.28474606  0.61464446  0.68508377    -0.13400
Br1589     Br  0.29387571  0.64159581  0.68213062    -0.05500
Br1590     Br  0.27324337  0.62097100  0.63688379     0.00100
Br1591     Br  0.25022218  0.62174459  0.69989376     0.00600
Br1592     Br  0.29827389  0.61100999  0.67829702    -0.03800
Br1593     Br  0.30150468  0.65128157  0.65824247     0.00700
Br1594     Br  0.26675855  0.61029003  0.66069093    -0.03100
Br1595     Br  0.25863808  0.63538940  0.67848207    -0.04000
Br1596     Br  0.29206483  0.60053109  0.70209192     0.00000
C1597       C  0.28795262  0.66390002  0.62155286     0.01400
C1598       C  0.29299042  0.67350760  0.62493652     0.04200
C1599       C  0.28994691  0.68345072  0.62036028    -0.11800
C1600       C  0.28197102  0.68378779  0.61225879     0.23500
C1601       C  0.27699280  0.67414678  0.60883876    -0.12400
C1602       C  0.27984124  0.66425834  0.61361504     0.04900
C1603       C  0.27858853  0.69426909  0.60749052     0.27300
C1604       C  0.26932054  0.69954702  0.61139375    -0.13100
C1605       C  0.26563965  0.70908591  0.60644052     0.05400
C1606       C  0.27137638  0.71356763  0.59768322    -0.09100
C1607       C  0.28090770  0.70846906  0.59406495     0.06300
C1608       C  0.28440417  0.69877875  0.59885407    -0.13400
Br1609     Br  0.26639275  0.67450625  0.59746222    -0.05500
Br1610     Br  0.30412389  0.67299093  0.63576936     0.00100
Br1611     Br  0.25234422  0.71553643  0.61129227     0.00600
Br1612     Br  0.29706923  0.69151826  0.59348309    -0.03800
Br1613     Br  0.27244044  0.65120183  0.60951463     0.00700
Br1614     Br  0.29669965  0.69662660  0.62512412    -0.03100
Br1615     Br  0.26159367  0.69352474  0.62346856    -0.04000
Br1616     Br  0.28949173  0.71495258  0.58283765     0.00000
C1617       C  0.28335096  0.87530131  0.83333355     0.01400
C1618       C  0.28806859  0.88420677  0.82788705     0.04200
C1619       C  0.28294369  0.88872175  0.81883887    -0.11800
C1620       C  0.27366174  0.88386063  0.81451043     0.23500
C1621       C  0.26932725  0.87460601  0.81937095    -0.12400
C1622       C  0.27381269  0.87059241  0.82898871     0.04900
C1623       C  0.26833969  0.88865818  0.80494405     0.27300
C1624       C  0.25916992  0.89523577  0.80626400    -0.13100
C1625       C  0.25445653  0.90026676  0.79726998     0.05400
C1626       C  0.25897433  0.89884124  0.78694653    -0.09100
C1627       C  0.26805647  0.89212182  0.78561200     0.06300
C1628       C  0.27264347  0.88693357  0.79458457    -0.13400
Br1629     Br  0.25711632  0.86750759  0.81276569    -0.05500
Br1630     Br  0.30189660  0.89006897  0.83209792     0.00100
Br1631     Br  0.24166599  0.90893462  0.79906972     0.00600
Br1632     Br  0.28488552  0.87750351  0.79275921    -0.03800
Br1633     Br  0.26606893  0.85920094  0.83630340     0.00700
Br1634     Br  0.28850223  0.90177359  0.81239961    -0.03100
Br1635     Br  0.25317243  0.89744438  0.82044520    -0.04000
Br1636     Br  0.27465323  0.89051605  0.77162505     0.00000
C1637       C  0.28756996  0.84631795  0.85987077     0.01400
C1638       C  0.27896535  0.84540758  0.86720253     0.04200
C1639       C  0.27643920  0.83534972  0.87170896    -0.11800
C1640       C  0.28227023  0.82611036  0.86858711     0.23500
C1641       C  0.29066993  0.82697628  0.86097979    -0.12400
C1642       C  0.29339264  0.83711820  0.85670992     0.04900
C1643       C  0.27973057  0.81558975  0.87361171     0.27300
C1644       C  0.28616522  0.81171873  0.88211629    -0.13100
C1645       C  0.28342620  0.80204686  0.88732904     0.05400
C1646       C  0.27388679  0.79651666  0.88446900    -0.09100
C1647       C  0.26749836  0.80036824  0.87585094     0.06300
C1648       C  0.27056087  0.80976385  0.87029782    -0.13400
Br1649     Br  0.29856533  0.81430905  0.85662600    -0.05500
Br1650     Br  0.27057383  0.85795539  0.87098421     0.00100
Br1651     Br  0.29309295  0.79616679  0.89800892     0.00600
Br1652     Br  0.26207855  0.81487199  0.85828648    -0.03800
Br1653     Br  0.30532022  0.83853818  0.84685452     0.00700
Br1654     Br  0.26526106  0.83428366  0.88247672    -0.03100
Br1655     Br  0.29854029  0.81990809  0.88686069    -0.04000
Br1656     Br  0.25414312  0.79332214  0.87203095     0.00000
C1657       C  0.25266840  0.47721311  0.73748128     0.01400
C1658       C  0.26266058  0.48247303  0.73928243     0.04200
C1659       C  0.26318215  0.49382886  0.73980357    -0.11800
C1660       C  0.25370855  0.50004889  0.73901537     0.23500
C1661       C  0.24371014  0.49484740  0.73753570    -0.12400
C1662       C  0.24321677  0.48353856  0.73642082     0.04900
C1663       C  0.25427120  0.51207376  0.73937033     0.27300
C1664       C  0.25577113  0.51752174  0.74923120    -0.13100
C1665       C  0.25653582  0.52886868  0.74947078     0.05400
C1666       C  0.25490124  0.53495033  0.73995368    -0.09100
C1667       C  0.25305215  0.52943099  0.73012289     0.06300
C1668       C  0.25321339  0.51807226  0.72979281    -0.13400
Br1669     Br  0.23063715  0.50330076  0.73715588    -0.05500
Br1670     Br  0.27568761  0.47428824  0.74165157     0.00100
Br1671     Br  0.26061634  0.53585679  0.76277756     0.00600
Br1672     Br  0.25210162  0.51064555  0.71615070    -0.03800
Br1673     Br  0.22962759  0.47696112  0.73258883     0.00700
Br1674     Br  0.27692747  0.50094493  0.74156630    -0.03100
Br1675     Br  0.25665103  0.50939129  0.76245503    -0.04000
Br1676     Br  0.24943066  0.53719891  0.71713551     0.00000
C1677       C  0.25208587  0.03256785  0.74534628     0.01400
C1678       C  0.25652529  0.02622622  0.75371903     0.04200
C1679       C  0.25571275  0.01488706  0.75334599    -0.11800
C1680       C  0.25031656  0.00980508  0.74473235     0.23500
C1681       C  0.24581927  0.01608601  0.73643048    -0.12400
C1682       C  0.24687308  0.02739412  0.73660969     0.04900
C1683       C  0.24955556  0.99783301  0.74426295     0.27300
C1684       C  0.25718541  0.99188095  0.73830386    -0.13100
C1685       C  0.25655407  0.98054505  0.73791060     0.05400
C1686       C  0.24822616  0.97510173  0.74340464    -0.09100
C1687       C  0.24044074  0.98108066  0.74915447     0.06300
C1688       C  0.24114433  0.99241094  0.74963569    -0.13400
Br1689     Br  0.23813174  0.00910121  0.72483137    -0.05500
Br1690     Br  0.26330219  0.03295695  0.76601286     0.00100
Br1691     Br  0.26735579  0.97246485  0.73017668     0.00600
Br1692     Br  0.23057228  0.00056698  0.75760378    -0.03800
Br1693     Br  0.24176745  0.03563184  0.72444456     0.00700
Br1694     Br  0.26189689  0.00622583  0.76468586    -0.03100
Br1695     Br  0.26854079  0.99932396  0.73073011    -0.04000
Br1696     Br  0.22854246  0.97377864  0.75600563     0.00000
C1697       C  0.36878742  0.34587035  0.71106575     0.01400
C1698       C  0.37755727  0.34685693  0.71825499     0.04200
C1699       C  0.38348881  0.33766472  0.72138342    -0.11800
C1700       C  0.38060759  0.32737798  0.71745936     0.23500
C1701       C  0.37162332  0.32635345  0.71054392    -0.12400
C1702       C  0.36570606  0.33555181  0.70739916     0.04900
C1703       C  0.38692108  0.31760876  0.72065372     0.27300
C1704       C  0.39520830  0.31365778  0.71395943    -0.13100
C1705       C  0.40081612  0.30413367  0.71671758     0.05400
C1706       C  0.39819189  0.29844135  0.72625754    -0.09100
C1707       C  0.39005266  0.30261228  0.73308585     0.06300
C1708       C  0.38444798  0.31211327  0.73026752    -0.13400
Br1709     Br  0.36765243  0.31232254  0.70512766    -0.05500
Br1710     Br  0.38124701  0.36083258  0.72402484     0.00100
Br1711     Br  0.41169887  0.29870124  0.70701349     0.00600
Br1712     Br  0.37329205  0.31768375  0.73956429    -0.03800
Br1713     Br  0.35363514  0.33405534  0.69771114     0.00700
Br1714     Br  0.39575646  0.33916191  0.73082239    -0.03100
Br1715     Br  0.39874870  0.32130739  0.70089650    -0.04000
Br1716     Br  0.38685188  0.29570712  0.74663585     0.00000
C1717       C  0.33788252  0.37087556  0.70632216     0.01400
C1718       C  0.32890568  0.36703260  0.70048524     0.04200
C1719       C  0.31855950  0.37140037  0.70236490    -0.11800
C1720       C  0.31723291  0.37990051  0.70981175     0.23500
C1721       C  0.32620401  0.38361625  0.71574756    -0.12400
C1722       C  0.33644881  0.37901194  0.71411539     0.04900
C1723       C  0.30654160  0.38518291  0.71136896     0.27300
C1724       C  0.30320311  0.39349674  0.70438634    -0.13100
C1725       C  0.29385260  0.39953787  0.70671336     0.05400
C1726       C  0.28791438  0.39750130  0.71621664    -0.09100
C1727       C  0.29115894  0.38897424  0.72306795     0.06300
C1728       C  0.30025356  0.38267312  0.72046820    -0.13400
Br1729     Br  0.32448766  0.39527274  0.72592458    -0.05500
Br1730     Br  0.33089912  0.35608099  0.68964233     0.00100
Br1731     Br  0.28910734  0.41043841  0.69668583     0.00600
Br1732     Br  0.30431500  0.37065978  0.72946733    -0.03800
Br1733     Br  0.34859256  0.38390518  0.72251480     0.00700
Br1734     Br  0.30620360  0.36583715  0.69473572    -0.03100
Br1735     Br  0.31162711  0.39674400  0.69173296    -0.04000
Br1736     Br  0.28390845  0.38645639  0.73659392     0.00000
C1737       C  0.29744162  0.10904680  0.75696307     0.01400
C1738       C  0.30198378  0.11630013  0.74945877     0.04200
C1739       C  0.31137643  0.12214988  0.75210750    -0.11800
C1740       C  0.31629835  0.12075047  0.76224490     0.23500
C1741       C  0.31177415  0.11351421  0.76973432    -0.12400
C1742       C  0.30239472  0.10766868  0.76711065     0.04900
C1743       C  0.32638247  0.12662116  0.76508289     0.27300
C1744       C  0.33647779  0.12203510  0.76262167    -0.13100
C1745       C  0.34601397  0.12673771  0.76663632     0.05400
C1746       C  0.34549715  0.13601571  0.77321543    -0.09100
C1747       C  0.33541417  0.14086002  0.77529031     0.06300
C1748       C  0.32589604  0.13623921  0.77112142    -0.13400
Br1749     Br  0.31848661  0.11167261  0.78365443    -0.05500
Br1750     Br  0.29565031  0.11786255  0.73533933     0.00100
Br1751     Br  0.35980129  0.12053673  0.76297179     0.00600
Br1752     Br  0.31211584  0.14290200  0.77384809    -0.03800
Br1753     Br  0.29615537  0.09807816  0.77763284     0.00700
Br1754     Br  0.31757359  0.13205887  0.74187635    -0.03100
Br1755     Br  0.33715816  0.10915708  0.75391359    -0.04000
Br1756     Br  0.33453634  0.15336414  0.78450488     0.00000
C1757       C  0.39783848  0.21334421  0.75549430     0.01400
C1758       C  0.40175156  0.20299379  0.75268759     0.04200
C1759       C  0.39667797  0.19363033  0.75669013    -0.11800
C1760       C  0.38738686  0.19445841  0.76318440     0.23500
C1761       C  0.38321202  0.20473982  0.76565352    -0.12400
C1762       C  0.38851273  0.21413638  0.76202328     0.04900
C1763       C  0.38208389  0.18450401  0.76746289     0.27300
C1764       C  0.37560497  0.17809618  0.76068842    -0.13100
C1765       C  0.37127416  0.16825699  0.76443035     0.05400
C1766       C  0.37279744  0.16501116  0.77532590    -0.09100
C1767       C  0.37887011  0.17184111  0.78225031     0.06300
C1768       C  0.38372361  0.18132387  0.77823211    -0.13400
Br1769     Br  0.37018394  0.20590075  0.77407392    -0.05500
Br1770     Br  0.41374489  0.20148672  0.74289231     0.00100
Br1771     Br  0.36401894  0.15910077  0.75408478     0.00600
Br1772     Br  0.39282627  0.18998055  0.78745538    -0.03800
Br1773     Br  0.38329227  0.22802967  0.76670331     0.00700
Br1774     Br  0.40253332  0.17958258  0.75339744    -0.03100
Br1775     Br  0.37271932  0.18289534  0.74616221    -0.04000
Br1776     Br  0.38022787  0.16876674  0.79745781     0.00000
C1777       C  0.10923988  0.21446132  0.73079225     0.01400
C1778       C  0.10702657  0.20901524  0.72103895     0.04200
C1779       C  0.11283871  0.19967629  0.71829775    -0.11800
C1780       C  0.12125094  0.19602548  0.72500498     0.23500
C1781       C  0.12364498  0.20157798  0.73461999    -0.12400
C1782       C  0.11750967  0.21064068  0.73762687     0.04900
C1783       C  0.12762117  0.18641440  0.72181027     0.27300
C1784       C  0.12557127  0.17633011  0.72663467    -0.13100
C1785       C  0.13115173  0.16711781  0.72309006     0.05400
C1786       C  0.13841441  0.16788724  0.71441242    -0.09100
C1787       C  0.14058421  0.17795908  0.70968892     0.06300
C1788       C  0.13539618  0.18726372  0.71356521    -0.13400
Br1789     Br  0.13543225  0.19680057  0.74358564    -0.05500
Br1790     Br  0.09655091  0.21467173  0.71100878     0.00100
Br1791     Br  0.12867363  0.15336968  0.72991429     0.00600
Br1792     Br  0.13883000  0.20117932  0.70753785    -0.03800
Br1793     Br  0.12016179  0.21745886  0.75136264     0.00700
Br1794     Br  0.10927433  0.19181957  0.70532630    -0.03100
Br1795     Br  0.11481872  0.17506996  0.73779114    -0.04000
Br1796     Br  0.15050998  0.17892037  0.69777358     0.00000
C1797       C  0.21158959  0.11090458  0.73500055     0.01400
C1798       C  0.20633980  0.11810650  0.74207359     0.04200
C1799       C  0.19717818  0.12385049  0.73859127    -0.11800
C1800       C  0.19343478  0.12266258  0.72793163     0.23500
C1801       C  0.19887445  0.11571642  0.72077206    -0.12400
C1802       C  0.20782700  0.10973412  0.72433345     0.04900
C1803       C  0.18357916  0.12840120  0.72426222     0.27300
C1804       C  0.17371176  0.12280479  0.72364888    -0.13100
C1805       C  0.16454405  0.12785882  0.71928439     0.05400
C1806       C  0.16515142  0.13863903  0.71566678    -0.09100
C1807       C  0.17495743  0.14436664  0.71665109     0.06300
C1808       C  0.18415549  0.13923116  0.72089400    -0.13400
Br1809     Br  0.19404679  0.11448008  0.70602734    -0.05500
Br1810     Br  0.21146552  0.11983947  0.75665107     0.00100
Br1811     Br  0.15110067  0.12001409  0.71858350     0.00600
Br1812     Br  0.19766025  0.14691052  0.72183844    -0.03800
Br1813     Br  0.21510810  0.10017412  0.71445057     0.00700
Br1814     Br  0.18957230  0.13317054  0.74844987    -0.03100
Br1815     Br  0.17282502  0.10815182  0.72881030    -0.04000
Br1816     Br  0.17606148  0.15904387  0.71158800     0.00000
C1817       C  0.13538916  0.34549342  0.77510268     0.01400
C1818       C  0.13989106  0.33505653  0.77581159     0.04200
C1819       C  0.13437196  0.32614952  0.77138150    -0.11800
C1820       C  0.12428053  0.32759100  0.76635600     0.23500
C1821       C  0.11983044  0.33799276  0.76553734    -0.12400
C1822       C  0.12542175  0.34693657  0.76974387     0.04900
C1823       C  0.11823054  0.31812991  0.76213696     0.27300
C1824       C  0.11979012  0.31462189  0.75144942    -0.13100
C1825       C  0.11423121  0.30549915  0.74756307     0.05400
C1826       C  0.10697128  0.29992888  0.75431787    -0.09100
C1827       C  0.10534634  0.30352403  0.76498873     0.06300
C1828       C  0.11093578  0.31261951  0.76886344    -0.13400
Br1829     Br  0.10594938  0.33990716  0.75876421    -0.05500
Br1830     Br  0.15331771  0.33279811  0.78334026     0.00100
Br1831     Br  0.11637684  0.30081522  0.73289066     0.00600
Br1832     Br  0.10864114  0.31758995  0.78341949    -0.03800
Br1833     Br  0.11957943  0.36121699  0.76763488     0.00700
Br1834     Br  0.14047018  0.31187337  0.77236150    -0.03100
Br1835     Br  0.12946383  0.32245052  0.74213917    -0.04000
Br1836     Br  0.09591857  0.29567114  0.77454178     0.00000
C1837       C  0.16636105  0.37064851  0.77752184     0.01400
C1838       C  0.17357626  0.37545324  0.78498500     0.04200
C1839       C  0.18297830  0.38066431  0.78133931    -0.11800
C1840       C  0.18534722  0.38099211  0.77026627     0.23500
C1841       C  0.17860605  0.37560973  0.76288081    -0.12400
C1842       C  0.16909190  0.37052612  0.76643930     0.04900
C1843       C  0.19438799  0.38774826  0.76624469     0.27300
C1844       C  0.19230128  0.39832418  0.76269916    -0.13100
C1845       C  0.20055704  0.40448993  0.75793945     0.05400
C1846       C  0.21118453  0.40037166  0.75736593    -0.09100
C1847       C  0.21337078  0.39001343  0.76164775     0.06300
C1848       C  0.20491942  0.38358635  0.76567653    -0.13400
Br1849     Br  0.18226256  0.37568320  0.74775995    -0.05500
Br1850     Br  0.17073933  0.37493246  0.80029118     0.00100
Br1851     Br  0.19690186  0.41816746  0.75149821     0.00600
Br1852     Br  0.20765514  0.36896074  0.77019409    -0.03800
Br1853     Br  0.15949038  0.36436919  0.75582183     0.00700
Br1854     Br  0.19246550  0.38776542  0.79144312    -0.03100
Br1855     Br  0.17798734  0.40426057  0.76426859    -0.04000
Br1856     Br  0.22798859  0.38475881  0.76271413     0.00000
C1857       C  0.47493049  0.25624102  0.74126648     0.01400
C1858       C  0.48109108  0.24670405  0.73984277     0.04200
C1859       C  0.49246626  0.24713834  0.73992636    -0.11800
C1860       C  0.49784123  0.25714190  0.74036894     0.23500
C1861       C  0.49177991  0.26667820  0.74142027    -0.12400
C1862       C  0.48046090  0.26620420  0.74242772     0.04900
C1863       C  0.50985129  0.25759329  0.73952755     0.27300
C1864       C  0.51621393  0.25973891  0.74869748    -0.13100
C1865       C  0.52754851  0.25993810  0.74789647     0.05400
C1866       C  0.53269209  0.25704454  0.73812874    -0.09100
C1867       C  0.52626547  0.25505163  0.72888942     0.06300
C1868       C  0.51492567  0.25570702  0.72954120    -0.13400
Br1869     Br  0.49903042  0.28046440  0.74122283    -0.05500
Br1870     Br  0.47424549  0.23304852  0.73681982     0.00100
Br1871     Br  0.53586175  0.26505276  0.76004436     0.00600
Br1872     Br  0.50623380  0.25402228  0.71672649    -0.03800
Br1873     Br  0.47287259  0.27925340  0.74626042     0.00700
Br1874     Br  0.50079714  0.23398250  0.73945232    -0.03100
Br1875     Br  0.50939147  0.26216804  0.76246419    -0.04000
Br1876     Br  0.53270736  0.25072203  0.71540593     0.00000
C1877       C  0.97378617  0.25332676  0.74672729     0.01400
C1878       C  0.98029231  0.24464761  0.75009355     0.04200
C1879       C  0.99155605  0.24514535  0.74883250    -0.11800
C1880       C  0.99639572  0.25441293  0.74439327     0.23500
C1881       C  0.98992142  0.26319772  0.74123184    -0.12400
C1882       C  0.97863072  0.26265399  0.74238189     0.04900
C1883       C  0.00832533  0.25499661  0.74340589     0.27300
C1884       C  0.01460828  0.25777578  0.75245266    -0.13100
C1885       C  0.02593038  0.25773067  0.75176712     0.05400
C1886       C  0.03104102  0.25528566  0.74191175    -0.09100
C1887       C  0.02474640  0.25256365  0.73282619     0.06300
C1888       C  0.01340893  0.25236335  0.73359473    -0.13400
Br1889     Br  0.99657849  0.27597054  0.73537782    -0.05500
Br1890     Br  0.97381256  0.23230280  0.75696832     0.00100
Br1891     Br  0.03441910  0.26031632  0.76455198     0.00600
Br1892     Br  0.00478590  0.24844884  0.72124878    -0.03800
Br1893     Br  0.96980234  0.27461538  0.73782107     0.00700
Br1894     Br  0.00042371  0.23314205  0.75321573    -0.03100
Br1895     Br  0.00763417  0.26163353  0.76580607    -0.04000
Br1896     Br  0.03161500  0.24934649  0.71925658     0.00000
C1897       C  0.84587588  0.22152457  0.62898384     0.01400
C1898       C  0.83582233  0.21998230  0.63412585     0.04200
C1899       C  0.82630885  0.22420869  0.62952700    -0.11800
C1900       C  0.82671601  0.22980276  0.61965407     0.23500
C1901       C  0.83674952  0.23151815  0.61461430    -0.12400
C1902       C  0.84629427  0.22751188  0.61930909     0.04900
C1903       C  0.81659753  0.23366700  0.61440380     0.27300
C1904       C  0.81034514  0.22652545  0.60813632    -0.13100
C1905       C  0.80102159  0.23023630  0.60279241     0.05400
C1906       C  0.79801513  0.24119990  0.60343398    -0.09100
C1907       C  0.80414610  0.24829282  0.60993347     0.06300
C1908       C  0.81335471  0.24451020  0.61544948    -0.13400
Br1909     Br  0.83736417  0.23932773  0.60118326    -0.05500
Br1910     Br  0.83490946  0.21157966  0.64717361     0.00100
Br1911     Br  0.79205505  0.22012113  0.59507109     0.00600
Br1912     Br  0.82164588  0.25416732  0.62441231    -0.03800
Br1913     Br  0.85997276  0.23074142  0.61267848     0.00700
Br1914     Br  0.81264010  0.22232309  0.63669073    -0.03100
Br1915     Br  0.81466888  0.21164010  0.60679808    -0.04000
Br1916     Br  0.80026630  0.26331920  0.61096704     0.00000
C1917       C  0.87170024  0.21760411  0.65912296     0.01400
C1918       C  0.87363974  0.22850864  0.66177522     0.04200
C1919       C  0.87784219  0.23125287  0.67196290    -0.11800
C1920       C  0.88051558  0.22311934  0.67942455     0.23500
C1921       C  0.87836002  0.21225036  0.67690395    -0.12400
C1922       C  0.87386741  0.20950570  0.66682957     0.04900
C1923       C  0.88637640  0.22599228  0.68950897     0.27300
C1924       C  0.89750611  0.22817173  0.68908625    -0.13100
C1925       C  0.90300111  0.23188173  0.69831333     0.05400
C1926       C  0.89757590  0.23260034  0.70835147    -0.09100
C1927       C  0.88649176  0.22976808  0.70882989     0.06300
C1928       C  0.88086483  0.22688012  0.69937264    -0.13400
Br1929     Br  0.88187770  0.20111649  0.68716985    -0.05500
Br1930     Br  0.87147671  0.23967647  0.65117012     0.00100
Br1931     Br  0.91766252  0.23686086  0.69662665     0.00600
Br1932     Br  0.86551977  0.22430315  0.69982326    -0.03800
Br1933     Br  0.87055214  0.19463315  0.66369854     0.00700
Br1934     Br  0.88023334  0.24618050  0.67566999    -0.03100
Br1935     Br  0.90519178  0.22611512  0.67569831    -0.04000
Br1936     Br  0.87894264  0.22912584  0.72242274     0.00000
C1937       C  0.66289243  0.28587193  0.62117216     0.01400
C1938       C  0.66404260  0.28145590  0.61073565     0.04200
C1939       C  0.67432267  0.27863255  0.60685507    -0.11800
C1940       C  0.68345315  0.27982714  0.61351036     0.23500
C1941       C  0.68224125  0.28353241  0.62416029    -0.12400
C1942       C  0.67204039  0.28675237  0.62792828     0.04900
C1943       C  0.69439735  0.27776602  0.60913657     0.27300
C1944       C  0.69835189  0.26715267  0.60828388    -0.13100
C1945       C  0.70856951  0.26525580  0.60373145     0.05400
C1946       C  0.71503355  0.27399860  0.60040882    -0.09100
C1947       C  0.71117102  0.28462544  0.60149083     0.06300
C1948       C  0.70082778  0.28650134  0.60573814    -0.13400
Br1949     Br  0.69468068  0.28433167  0.63349993    -0.05500
Br1950     Br  0.65151732  0.27882851  0.60184656     0.00100
Br1951     Br  0.71343013  0.25065424  0.60147340     0.00600
Br1952     Br  0.69538446  0.30104493  0.60682732    -0.03800
Br1953     Br  0.67093826  0.29306246  0.64207816     0.00700
Br1954     Br  0.67596547  0.27332454  0.59232489    -0.03100
Br1955     Br  0.68975123  0.25525237  0.61339975    -0.04000
Br1956     Br  0.72013889  0.29663117  0.59733053     0.00000
C1957       C  0.63387086  0.28640878  0.64810876     0.01400
C1958       C  0.62587858  0.27835616  0.64854260     0.04200
C1959       C  0.62184434  0.27492549  0.65855562    -0.11800
C1960       C  0.62590982  0.27943852  0.66816299     0.23500
C1961       C  0.63400593  0.28739262  0.66773446    -0.12400
C1962       C  0.63783923  0.29101268  0.65771068     0.04900
C1963       C  0.62109341  0.27638212  0.67865044     0.27300
C1964       C  0.61297012  0.28289077  0.68315558    -0.13100
C1965       C  0.60797701  0.27984648  0.69284176     0.05400
C1966       C  0.61089068  0.27009630  0.69795554    -0.09100
C1967       C  0.61922666  0.26369372  0.69354218     0.06300
C1968       C  0.62438297  0.26690739  0.68395644    -0.13400
Br1969     Br  0.63970541  0.29338930  0.68091444    -0.05500
Br1970     Br  0.62047135  0.27202776  0.63541375     0.00100
Br1971     Br  0.59746396  0.28937829  0.69925483     0.00600
Br1972     Br  0.63586490  0.25830616  0.67793612    -0.03800
Br1973     Br  0.64801640  0.30274041  0.65712496     0.00700
Br1974     Br  0.61061082  0.26417418  0.65915170    -0.03100
Br1975     Br  0.60858333  0.29594563  0.67590053    -0.04000
Br1976     Br  0.62320403  0.25019189  0.70015420     0.00000
C1977       C  0.84247169  0.29277865  0.86334025     0.01400
C1978       C  0.83289975  0.29777631  0.85980962     0.04200
C1979       C  0.82285621  0.29460059  0.86412047    -0.11800
C1980       C  0.82235990  0.28654207  0.87213525     0.23500
C1981       C  0.83195560  0.28149097  0.87558093    -0.12400
C1982       C  0.84195031  0.28452350  0.87111557     0.04900
C1983       C  0.81182018  0.28349950  0.87711067     0.27300
C1984       C  0.80724415  0.29001371  0.88522192    -0.13100
C1985       C  0.79734028  0.28711062  0.88999859     0.05400
C1986       C  0.79227582  0.27725719  0.88724920    -0.09100
C1987       C  0.79703057  0.27061714  0.87929077     0.06300
C1988       C  0.80654075  0.27392069  0.87399642    -0.13400
Br1989     Br  0.83142227  0.27057341  0.88662846    -0.05500
Br1990     Br  0.83363357  0.30922559  0.84934407     0.00100
Br1991     Br  0.79052388  0.29698522  0.89990893     0.00600
Br1992     Br  0.81244466  0.26528967  0.86248175    -0.03800
Br1993     Br  0.85498733  0.27728972  0.87555655     0.00700
Br1994     Br  0.80975356  0.30131135  0.85912147    -0.03100
Br1995     Br  0.81476206  0.30278351  0.89000749    -0.04000
Br1996     Br  0.79113084  0.25655080  0.87619820     0.00000
C1997       C  0.89749515  0.27274713  0.78794143     0.01400
C1998       C  0.88882957  0.28012503  0.78728941     0.04200
C1999       C  0.88323473  0.28322538  0.79667404    -0.11800
C2000       C  0.88657495  0.27942143  0.80683278     0.23500
C2001       C  0.89528201  0.27216753  0.80753728    -0.12400
C2002       C  0.90055970  0.26863116  0.79812569     0.04900
C2003       C  0.88132067  0.28350969  0.81682403     0.27300
C2004       C  0.88443116  0.29353694  0.82109634    -0.13100
C2005       C  0.87947761  0.29757195  0.83047958     0.05400
C2006       C  0.87179357  0.29124221  0.83617290    -0.09100
C2007       C  0.86881458  0.28104377  0.83185572     0.06300
C2008       C  0.87335802  0.27738327  0.82208204    -0.13400
Br2009     Br  0.90010509  0.26727037  0.82149025    -0.05500
Br2010     Br  0.88505347  0.28668522  0.77370463     0.00100
Br2011     Br  0.88301109  0.31211707  0.83487234     0.00600
Br2012     Br  0.86877930  0.26387913  0.81581530    -0.03800
Br2013     Br  0.91161046  0.25772765  0.79930561     0.00700
Br2014     Br  0.87102494  0.29281695  0.79570081    -0.03100
Br2015     Br  0.89570910  0.30167325  0.81406374    -0.04000
Br2016     Br  0.85912012  0.27151587  0.83945449     0.00000
C2017       C  0.65923232  0.22953836  0.86117363     0.01400
C2018       C  0.66941085  0.22602846  0.85754070     0.04200
C2019       C  0.67889494  0.22996246  0.86243346    -0.11800
C2020       C  0.67824543  0.23735298  0.87105191     0.23500
C2021       C  0.66807245  0.24110669  0.87446464    -0.12400
C2022       C  0.65860276  0.23727965  0.86947097     0.04900
C2023       C  0.68822366  0.24088909  0.87675851     0.27300
C2024       C  0.69260412  0.23445605  0.88502183    -0.13100
C2025       C  0.70210149  0.23768285  0.89038865     0.05400
C2026       C  0.70718882  0.24753301  0.88768126    -0.09100
C2027       C  0.70260648  0.25408503  0.87955928     0.06300
C2028       C  0.69328575  0.25066879  0.87399597    -0.13400
Br2029     Br  0.66713869  0.25130906  0.88616577    -0.05500
Br2030     Br  0.67034942  0.21555731  0.84610076     0.00100
Br2031     Br  0.70829961  0.22825213  0.90109540     0.00600
Br2032     Br  0.68741218  0.25933644  0.86250795    -0.03800
Br2033     Br  0.64474733  0.24276937  0.87386123     0.00700
Br2034     Br  0.69281609  0.22509538  0.85750922    -0.03100
Br2035     Br  0.68552743  0.22115259  0.88892658    -0.04000
Br2036     Br  0.70858745  0.26811377  0.87649004     0.00000
C2037       C  0.63128417  0.22727981  0.83285917     0.01400
C2038       C  0.63719234  0.22637474  0.82318066     0.04200
C2039       C  0.63260190  0.22971892  0.81334562    -0.11800
C2040       C  0.62190799  0.23356023  0.81302138     0.23500
C2041       C  0.61601675  0.23456160  0.82268982    -0.12400
C2042       C  0.62075425  0.23161133  0.83259063     0.04900
C2043       C  0.61681257  0.23625217  0.80247295     0.27300
C2044       C  0.61572093  0.24709006  0.79920940    -0.13100
C2045       C  0.61089944  0.24957658  0.78922840     0.05400
C2046       C  0.60740468  0.24123438  0.78232551    -0.09100
C2047       C  0.60876008  0.23040046  0.78545157     0.06300
C2048       C  0.61327041  0.22791651  0.79556895    -0.13400
Br2049     Br  0.60138906  0.23985562  0.82233623    -0.05500
Br2050     Br  0.65132906  0.21993223  0.82320396     0.00100
Br2051     Br  0.60879870  0.26443549  0.78515003     0.00600
Br2052     Br  0.61456997  0.21306643  0.80001233    -0.03800
Br2053     Br  0.61294935  0.23393257  0.84584412     0.00700
Br2054     Br  0.64095111  0.22905837  0.80023772    -0.03100
Br2055     Br  0.62096217  0.25851964  0.80837820    -0.04000
Br2056     Br  0.60492133  0.21895220  0.77562993     0.00000
C2057       C  0.75501600  0.25878149  0.46772642     0.01400
C2058       C  0.75303042  0.24917555  0.47355083     0.04200
C2059       C  0.75360228  0.24914743  0.48489496    -0.11800
C2060       C  0.75547282  0.25881666  0.49057501     0.23500
C2061       C  0.75704472  0.26848111  0.48482767    -0.12400
C2062       C  0.75715759  0.26842180  0.47347033     0.04900
C2063       C  0.75579711  0.25879647  0.50259056     0.27300
C2064       C  0.74617487  0.25795136  0.50855128    -0.13100
C2065       C  0.74651217  0.25724982  0.51988825     0.05400
C2066       C  0.75646439  0.25825520  0.52545093    -0.09100
C2067       C  0.76604014  0.25970852  0.51940692     0.06300
C2068       C  0.76573115  0.25955166  0.50805406    -0.13400
Br2069     Br  0.75896810  0.28185271  0.49258381    -0.05500
Br2070     Br  0.74876916  0.23612202  0.46619389     0.00100
Br2071     Br  0.73328739  0.25422986  0.52752325     0.00600
Br2072     Br  0.77897163  0.26037770  0.49991455    -0.03800
Br2073     Br  0.76098130  0.28150430  0.46596128     0.00700
Br2074     Br  0.75192038  0.23580334  0.49272384    -0.03100
Br2075     Br  0.73248906  0.25796353  0.50109672    -0.04000
Br2076     Br  0.77956425  0.26287465  0.52645649     0.00000
C2077       C  0.75117411  0.25860489  0.96373150     0.01400
C2078       C  0.75338964  0.24856643  0.96856066     0.04200
C2079       C  0.75357876  0.24762625  0.97987163    -0.11800
C2080       C  0.75152267  0.25672662  0.98636447     0.23500
C2081       C  0.74931135  0.26675738  0.98152033    -0.12400
C2082       C  0.74912562  0.26769074  0.97022707     0.04900
C2083       C  0.75165291  0.25586301  0.99829787     0.27300
C2084       C  0.74195627  0.25418947  0.00395986    -0.13100
C2085       C  0.74188762  0.25442264  0.01530069     0.05400
C2086       C  0.75156428  0.25615009  0.02103788    -0.09100
C2087       C  0.76132145  0.25756265  0.01534827     0.06300
C2088       C  0.76134705  0.25744256  0.00400434    -0.13400
Br2089     Br  0.74653954  0.27921342  0.99042909    -0.05500
Br2090     Br  0.75620008  0.23613934  0.95964319     0.00100
Br2091     Br  0.72840307  0.25306229  0.02292875     0.00600
Br2092     Br  0.77463179  0.25955645  0.99620093    -0.03800
Br2093     Br  0.74591921  0.28138822  0.96362814     0.00700
Br2094     Br  0.75664493  0.23391925  0.98651517    -0.03100
Br2095     Br  0.72874734  0.25176148  0.99609905    -0.04000
Br2096     Br  0.77473666  0.25939074  0.02303216     0.00000
C2097       C  0.78668170  0.34456712  0.12524782     0.01400
C2098       C  0.77786338  0.34444122  0.11809228     0.04200
C2099       C  0.77478316  0.33475110  0.11304824    -0.11800
C2100       C  0.78044041  0.32514949  0.11526764     0.23500
C2101       C  0.78899333  0.32521534  0.12275230    -0.12400
C2102       C  0.79218062  0.33494324  0.12765242     0.04900
C2103       C  0.77776418  0.31511224  0.10931949     0.27300
C2104       C  0.76950209  0.30827485  0.11302345    -0.13100
C2105       C  0.76683859  0.29888572  0.10720982     0.05400
C2106       C  0.77254974  0.29622790  0.09772039    -0.09100
C2107       C  0.78096217  0.30300897  0.09414463     0.06300
C2108       C  0.78350821  0.31245371  0.09989861    -0.13400
Br2109     Br  0.79646351  0.31199297  0.12606305    -0.05500
Br2110     Br  0.77025560  0.35763811  0.11496293     0.00100
Br2111     Br  0.75498103  0.29003333  0.11201644     0.00600
Br2112     Br  0.79489859  0.32181528  0.09491668    -0.03800
Br2113     Br  0.80427116  0.33520243  0.13742594     0.00700
Br2114     Br  0.76306159  0.33465138  0.10282099    -0.03100
Br2115     Br  0.76184614  0.31186327  0.12607074    -0.04000
Br2116     Br  0.78937569  0.29916947  0.08163544     0.00000
C2117       C  0.78559678  0.37409271  0.15183288     0.01400
C2118       C  0.78010805  0.38403366  0.15142252     0.04200
C2119       C  0.77720170  0.38932635  0.16100988    -0.11800
C2120       C  0.77953513  0.38457744  0.17104794     0.23500
C2121       C  0.78474719  0.37449520  0.17147862    -0.12400
C2122       C  0.78782884  0.36927388  0.16188304     0.04900
C2123       C  0.77625354  0.39010955  0.18112499     0.27300
C2124       C  0.78361219  0.39675928  0.18667929    -0.13100
C2125       C  0.78032889  0.40229846  0.19602827     0.05400
C2126       C  0.76966747  0.40117332  0.19985217    -0.09100
C2127       C  0.76232848  0.39450266  0.19426764     0.06300
C2128       C  0.76564202  0.38893682  0.18496925    -0.13400
Br2129     Br  0.78776818  0.36796554  0.18525570    -0.05500
Br2130     Br  0.77621329  0.39021294  0.13769253     0.00100
Br2131     Br  0.79055697  0.41115045  0.20373887     0.00600
Br2132     Br  0.75565103  0.37969690  0.17740499    -0.03800
Br2133     Br  0.79554485  0.35578653  0.16255939     0.00700
Br2134     Br  0.77014196  0.40317663  0.16044356    -0.03100
Br2135     Br  0.79818911  0.39821234  0.18144180    -0.04000
Br2136     Br  0.74753768  0.39341872  0.19897303     0.00000
C2137       C  0.72420299  0.37332158  0.33224957     0.01400
C2138       C  0.71968017  0.37011478  0.32234436     0.04200
C2139       C  0.72326779  0.37483999  0.31267868    -0.11800
C2140       C  0.73133724  0.38284763  0.31291894     0.23500
C2141       C  0.73606286  0.38583930  0.32281962    -0.12400
C2142       C  0.73250822  0.38106614  0.33246576     0.04900
C2143       C  0.73477773  0.38824762  0.30280785     0.27300
C2144       C  0.74416214  0.38479894  0.29743464    -0.13100
C2145       C  0.74772301  0.39023490  0.28813967     0.05400
C2146       C  0.74189982  0.39917619  0.28417583    -0.09100
C2147       C  0.73234244  0.40244985  0.28942285     0.06300
C2148       C  0.72880043  0.39699624  0.29871298    -0.13400
Br2149     Br  0.74724054  0.39666256  0.32315340    -0.05500
Br2150     Br  0.70836604  0.35945557  0.32210215     0.00100
Br2151     Br  0.76087014  0.38568003  0.28118773     0.00600
Br2152     Br  0.71575085  0.40150214  0.30588765    -0.03800
Br2153     Br  0.73885567  0.38525575  0.34603451     0.00700
Br2154     Br  0.71703117  0.37051560  0.29910682    -0.03100
Br2155     Br  0.75216892  0.37265785  0.30294638    -0.04000
Br2156     Br  0.72380791  0.41412694  0.28367362     0.00000
C2157       C  0.73643203  0.29917647  0.39070232     0.01400
C2158       C  0.74428278  0.30441518  0.38435215     0.04200
C2159       C  0.74159131  0.31379287  0.37853066    -0.11800
C2160       C  0.73108721  0.31808751  0.37914047     0.23500
C2161       C  0.72326928  0.31292358  0.38556461    -0.12400
C2162       C  0.72592369  0.30349596  0.39131982     0.04900
C2163       C  0.72832868  0.32820328  0.37328105     0.27300
C2164       C  0.73026800  0.33829300  0.37814555    -0.13100
C2165       C  0.72740701  0.34787948  0.37277176     0.05400
C2166       C  0.72258247  0.34744875  0.36247503    -0.09100
C2167       C  0.72071442  0.33733701  0.35757215     0.06300
C2168       C  0.72359610  0.32775024  0.36295855    -0.13400
Br2169     Br  0.70891589  0.31884741  0.38647403    -0.05500
Br2170     Br  0.75890497  0.29911211  0.38409749     0.00100
Br2171     Br  0.73034768  0.36163247  0.37944272     0.00600
Br2172     Br  0.72089947  0.31393526  0.35632695    -0.03800
Br2173     Br  0.71505993  0.29636219  0.39984864     0.00700
Br2174     Br  0.75229323  0.32086111  0.36975241    -0.03100
Br2175     Br  0.73675610  0.33891663  0.39226620    -0.04000
Br2176     Br  0.71363240  0.33654869  0.34374973     0.00000
C2177       C  0.72508208  0.13755732  0.15272342     0.01400
C2178       C  0.73046494  0.12751736  0.15293294     0.04200
C2179       C  0.73403952  0.12317958  0.16278204    -0.11800
C2180       C  0.73252812  0.12894979  0.17243996     0.23500
C2181       C  0.72733614  0.13904465  0.17224874    -0.12400
C2182       C  0.72349054  0.14328363  0.16244460     0.04900
C2183       C  0.73628312  0.12428590  0.18280759     0.27300
C2184       C  0.72917693  0.11808037  0.18911577    -0.13100
C2185       C  0.73281898  0.11329629  0.19873565     0.05400
C2186       C  0.74360860  0.11469896  0.20209655    -0.09100
C2187       C  0.75069831  0.12098173  0.19579612     0.06300
C2188       C  0.74702963  0.12577278  0.18618580    -0.13400
Br2189     Br  0.72550053  0.14700711  0.18548470    -0.05500
Br2190     Br  0.73350406  0.11987967  0.13971102     0.00100
Br2191     Br  0.72289801  0.10506721  0.20743153     0.00600
Br2192     Br  0.75674336  0.13423617  0.17748497    -0.03800
Br2193     Br  0.71552986  0.15665509  0.16249413     0.00700
Br2194     Br  0.74102626  0.10928006  0.16311738    -0.03100
Br2195     Br  0.71446291  0.11607525  0.18444942    -0.04000
Br2196     Br  0.76561527  0.12254514  0.19995880     0.00000
C2197       C  0.72585228  0.16637509  0.12542781     0.01400
C2198       C  0.71894927  0.17386388  0.12030822     0.04200
C2199       C  0.72324843  0.18313654  0.11540004    -0.11800
C2200       C  0.73437229  0.18531828  0.11608216     0.23500
C2201       C  0.74116178  0.17831240  0.12186607    -0.12400
C2202       C  0.73701382  0.16869067  0.12622907     0.04900
C2203       C  0.73897575  0.19466889  0.11019703     0.27300
C2204       C  0.74388331  0.19308461  0.10008463    -0.13100
C2205       C  0.74775799  0.20196290  0.09418779     0.05400
C2206       C  0.74636139  0.21254635  0.09818595    -0.09100
C2207       C  0.74143400  0.21409248  0.10835573     0.06300
C2208       C  0.73802117  0.20514963  0.11444229    -0.13400
Br2209     Br  0.75620733  0.18190780  0.12363190    -0.05500
Br2210     Br  0.70351878  0.17172523  0.12028467     0.00100
Br2211     Br  0.75533075  0.19946991  0.08082745     0.00600
Br2212     Br  0.73189924  0.20719125  0.12859231    -0.03800
Br2213     Br  0.74694364  0.15838667  0.13237193     0.00700
Br2214     Br  0.71394810  0.19275223  0.10744372    -0.03100
Br2215     Br  0.74508343  0.17869816  0.09423350    -0.04000
Br2216     Br  0.73844166  0.22840927  0.11370084     0.00000
C2217       C  0.79278948  0.14321636  0.33442810     0.01400
C2218       C  0.78667469  0.13364519  0.33385680     0.04200
C2219       C  0.78390510  0.12921048  0.32379849    -0.11800
C2220       C  0.78685245  0.13454181  0.31423004     0.23500
C2221       C  0.79256304  0.14435836  0.31477047    -0.12400
C2222       C  0.79567072  0.14861189  0.32485125     0.04900
C2223       C  0.78395518  0.12970276  0.30365197     0.27300
C2224       C  0.79140719  0.12309006  0.29820260    -0.13100
C2225       C  0.78839371  0.11781121  0.28861037     0.05400
C2226       C  0.77781433  0.11892676  0.28453575    -0.09100
C2227       C  0.77039570  0.12565872  0.28995314     0.06300
C2228       C  0.77352106  0.13114284  0.29939856    -0.13400
Br2229     Br  0.79608143  0.15191783  0.30166940    -0.05500
Br2230     Br  0.78157885  0.12686213  0.34684961     0.00100
Br2231     Br  0.79890559  0.10928183  0.28093416     0.00600
Br2232     Br  0.76345930  0.14047197  0.30672867    -0.03800
Br2233     Br  0.80423443  0.16157489  0.32552265     0.00700
Br2234     Br  0.77613558  0.11573582  0.32308525    -0.03100
Br2235     Br  0.80567637  0.12107576  0.30407941    -0.04000
Br2236     Br  0.75569391  0.12678490  0.28497393     0.00000
C2237       C  0.79015383  0.17011601  0.36373765     0.01400
C2238       C  0.79678010  0.17751077  0.36938459     0.04200
C2239       C  0.79223365  0.18650844  0.37458935    -0.11800
C2240       C  0.78109611  0.18851913  0.37384434     0.23500
C2241       C  0.77450382  0.18152632  0.36778245    -0.12400
C2242       C  0.77895547  0.17227706  0.36285280     0.04900
C2243       C  0.77641405  0.19803694  0.37947483     0.27300
C2244       C  0.77177102  0.19686235  0.38975722    -0.13100
C2245       C  0.76792927  0.20596438  0.39539020     0.05400
C2246       C  0.76901978  0.21640824  0.39089899    -0.09100
C2247       C  0.77380229  0.21752493  0.38059430     0.06300
C2248       C  0.77723862  0.20835216  0.37483651    -0.13400
Br2249     Br  0.75933377  0.18468347  0.36633167    -0.05500
Br2250     Br  0.81223727  0.17590151  0.36950358     0.00100
Br2251     Br  0.76081551  0.20386730  0.40906272     0.00600
Br2252     Br  0.78329914  0.20985586  0.36059026    -0.03800
Br2253     Br  0.76945214  0.16242766  0.35540258     0.00700
Br2254     Br  0.80126641  0.19613562  0.38287982    -0.03100
Br2255     Br  0.77086826  0.18271022  0.39616342    -0.04000
Br2256     Br  0.77661472  0.23160078  0.37457955     0.00000
C2257       C  0.75522822  0.47676863  0.24430037     0.01400
C2258       C  0.76361224  0.48294636  0.24887170     0.04200
C2259       C  0.76311144  0.49428986  0.24864427    -0.11800
C2260       C  0.75407934  0.49951374  0.24411990     0.23500
C2261       C  0.74552766  0.49332311  0.23988082    -0.12400
C2262       C  0.74619602  0.48198685  0.23977306     0.04900
C2263       C  0.75378644  0.51149556  0.24341448     0.27300
C2264       C  0.75113982  0.51775468  0.25252875    -0.13100
C2265       C  0.75126282  0.52910205  0.25190031     0.05400
C2266       C  0.75381529  0.53424596  0.24209004    -0.09100
C2267       C  0.75621528  0.52797405  0.23292027     0.06300
C2268       C  0.75631508  0.51664212  0.23360776    -0.13400
Br2269     Br  0.73287561  0.50042729  0.23427564    -0.05500
Br2270     Br  0.77603559  0.47587097  0.25500241     0.00100
Br2271     Br  0.74841612  0.53758621  0.26462063     0.00600
Br2272     Br  0.76007342  0.50812390  0.22113956    -0.03800
Br2273     Br  0.73467065  0.47360747  0.23350420     0.00700
Br2274     Br  0.77493696  0.50270942  0.25426341    -0.03100
Br2275     Br  0.74738671  0.51073462  0.26587558    -0.04000
Br2276     Br  0.75903356  0.53490698  0.21930309     0.00000
C2277       C  0.76080509  0.04032809  0.24779637     0.01400
C2278       C  0.76475471  0.03344483  0.23962761     0.04200
C2279       C  0.76358432  0.02219212  0.24057538    -0.11800
C2280       C  0.75898316  0.01770419  0.24994077     0.23500
C2281       C  0.75552953  0.02453493  0.25833538    -0.12400
C2282       C  0.75607566  0.03580591  0.25711686     0.04900
C2283       C  0.75738531  0.00583741  0.25075782     0.27300
C2284       C  0.74702954  0.00139351  0.24930397    -0.13100
C2285       C  0.74546203  0.99016674  0.25001308     0.05400
C2286       C  0.75439720  0.98318617  0.25140590    -0.09100
C2287       C  0.76484828  0.98771085  0.25251046     0.06300
C2288       C  0.76622685  0.99898399  0.25265760    -0.13400
Br2289     Br  0.75007363  0.01839371  0.27153859    -0.05500
Br2290     Br  0.77221901  0.03931443  0.22731374     0.00100
Br2291     Br  0.73091684  0.98460584  0.24955581     0.00600
Br2292     Br  0.78028831  0.00511669  0.25539198    -0.03800
Br2293     Br  0.74950659  0.04492618  0.26788683     0.00700
Br2294     Br  0.76813725  0.01289379  0.22894636    -0.03100
Br2295     Br  0.73499983  0.01074922  0.24606701    -0.04000
Br2296     Br  0.77757322  0.97873135  0.25272215     0.00000
C2297       C  0.53543291  0.75748421  0.24020557     0.01400
C2298       C  0.52895247  0.75999835  0.23120764     0.04200
C2299       C  0.51762256  0.75990987  0.23210710    -0.11800
C2300       C  0.51270178  0.75746534  0.24205036     0.23500
C2301       C  0.51917916  0.75503592  0.25106909    -0.12400
C2302       C  0.53050399  0.75491637  0.25012125     0.04900
C2303       C  0.50072328  0.75736845  0.24301427     0.27300
C2304       C  0.49501197  0.76711268  0.24431265    -0.13100
C2305       C  0.48368484  0.76701787  0.24518525     0.05400
C2306       C  0.47801297  0.75716304  0.24500909    -0.09100
C2307       C  0.48371970  0.74741087  0.24374446     0.06300
C2308       C  0.49503674  0.74752084  0.24266636    -0.13400
Br2309     Br  0.51247873  0.75203022  0.26476850    -0.05500
Br2310     Br  0.53559335  0.76314727  0.21751543     0.00100
Br2311     Br  0.47593369  0.78040245  0.24684087     0.00600
Br2312     Br  0.50279946  0.73420150  0.24058232    -0.03800
Br2313     Br  0.53926051  0.75149197  0.26250801     0.00700
Br2314     Br  0.50878927  0.76300706  0.21968861    -0.03100
Br2315     Br  0.50276069  0.78058305  0.24503985    -0.04000
Br2316     Br  0.47599406  0.73392657  0.24312533     0.00000
C2317       C  0.61136845  0.80237902  0.22830171     0.01400
C2318       C  0.62053691  0.80570695  0.23424057     0.04200
C2319       C  0.62599778  0.81529883  0.23149387    -0.11800
C2320       C  0.62219209  0.82180591  0.22301092     0.23500
C2321       C  0.61280942  0.81876472  0.21737249    -0.12400
C2322       C  0.60754936  0.80899630  0.21982578     0.04900
C2323       C  0.62832863  0.83157593  0.21966386     0.27300
C2324       C  0.62721187  0.84136372  0.22536191    -0.13100
C2325       C  0.63302020  0.85056921  0.22208543     0.05400
C2326       C  0.63965254  0.85011911  0.21288082    -0.09100
C2327       C  0.64069597  0.84038426  0.20714075     0.06300
C2328       C  0.63517680  0.83109829  0.21060108    -0.13400
Br2329     Br  0.60722773  0.82804204  0.20619654    -0.05500
Br2330     Br  0.62545442  0.79745238  0.24646289     0.00100
Br2331     Br  0.63155991  0.86394291  0.22989346     0.00600
Br2332     Br  0.63672488  0.81777524  0.20271778    -0.03800
Br2333     Br  0.59562146  0.80443755  0.21090441     0.00700
Br2334     Br  0.63880816  0.81954533  0.23926415    -0.03100
Br2335     Br  0.61725235  0.84227804  0.23725301    -0.04000
Br2336     Br  0.64948997  0.83991293  0.19432799     0.00000
C2337       C  0.66744298  0.87880115  0.21127375     0.01400
C2338       C  0.67737248  0.87394433  0.20860935     0.04200
C2339       C  0.68713102  0.87931280  0.21090813    -0.11800
C2340       C  0.68697200  0.88953132  0.21589004     0.23500
C2341       C  0.67705104  0.89436277  0.21856544    -0.12400
C2342       C  0.66731595  0.88902330  0.21625139     0.04900
C2343       C  0.69718436  0.89520973  0.21853134     0.27300
C2344       C  0.70167648  0.89417579  0.22890169    -0.13100
C2345       C  0.71080856  0.90026130  0.23179689     0.05400
C2346       C  0.71563247  0.90725851  0.22423808    -0.09100
C2347       C  0.71120137  0.90819724  0.21381398     0.06300
C2348       C  0.70197186  0.90220672  0.21097841    -0.13400
Br2349     Br  0.67685441  0.90842114  0.22525081    -0.05500
Br2350     Br  0.67757235  0.86023306  0.20126252     0.00100
Br2351     Br  0.71620967  0.89952463  0.24636850     0.00600
Br2352     Br  0.69573364  0.90368364  0.19681724    -0.03800
Br2353     Br  0.65376315  0.89570746  0.21995148     0.00700
Br2354     Br  0.70072527  0.87285405  0.20701620    -0.03100
Br2355     Br  0.69509983  0.88456042  0.23919911    -0.04000
Br2356     Br  0.71787442  0.91756268  0.20335857     0.00000
C2357       C  0.63806827  0.66721295  0.26716201     0.01400
C2358       C  0.64310184  0.67732352  0.26855798     0.04200
C2359       C  0.63853167  0.68664780  0.26395271    -0.11800
C2360       C  0.62875977  0.68596670  0.25817504     0.23500
C2361       C  0.62391133  0.67581590  0.25649491    -0.12400
C2362       C  0.62861678  0.66645423  0.26087843     0.04900
C2363       C  0.62326887  0.69597596  0.25443971     0.27300
C2364       C  0.61695938  0.70199644  0.26173147    -0.13100
C2365       C  0.61170343  0.71145542  0.25829982     0.05400
C2366       C  0.61260247  0.71489357  0.24750361    -0.09100
C2367       C  0.61889357  0.70886144  0.24020062     0.06300
C2368       C  0.62427584  0.69946887  0.24367846    -0.13400
Br2369     Br  0.61070580  0.67479169  0.24833590    -0.05500
Br2370     Br  0.65591512  0.67852919  0.27729757     0.00100
Br2371     Br  0.60353279  0.71987710  0.26851501     0.00600
Br2372     Br  0.63302360  0.69133562  0.23373318    -0.03800
Br2373     Br  0.62229540  0.65252264  0.25801549     0.00700
Br2374     Br  0.64555170  0.70043079  0.26563291    -0.03100
Br2375     Br  0.61547368  0.69719171  0.27644576    -0.04000
Br2376     Br  0.61975528  0.71321716  0.22531557     0.00000
C2377       C  0.66660928  0.63994617  0.27105854     0.01400
C2378       C  0.66641917  0.63137169  0.26360737     0.04200
C2379       C  0.67608797  0.62633153  0.26049623    -0.11800
C2380       C  0.68601372  0.62997794  0.26466344     0.23500
C2381       C  0.68623597  0.63873117  0.27192073    -0.12400
C2382       C  0.67652997  0.64367449  0.27515626     0.04900
C2383       C  0.69613585  0.62435505  0.26158802     0.27300
C2384       C  0.69972753  0.61547274  0.26766469    -0.13100
C2385       C  0.70889462  0.60963593  0.26438442     0.05400
C2386       C  0.71452896  0.61265516  0.25496421    -0.09100
C2387       C  0.71097481  0.62164912  0.24895436     0.06300
C2388       C  0.70181798  0.62748834  0.25228289    -0.13400
Br2389     Br  0.69983504  0.64379476  0.27751181    -0.05500
Br2390     Br  0.65290850  0.62663581  0.25752996     0.00100
Br2391     Br  0.71385906  0.59772719  0.27306900     0.00600
Br2392     Br  0.69685014  0.63966835  0.24399805    -0.03800
Br2393     Br  0.67675257  0.65541218  0.28534913     0.00700
Br2394     Br  0.67577774  0.61428233  0.25065027    -0.03100
Br2395     Br  0.69193613  0.61127375  0.28044862    -0.04000
Br2396     Br  0.71820273  0.62562728  0.23577705     0.00000
C2397       C  0.84107998  0.87659743  0.27727125     0.01400
C2398       C  0.83416506  0.88030260  0.28554678     0.04200
C2399       C  0.82466184  0.88594667  0.28296962    -0.11800
C2400       C  0.82187865  0.88776451  0.27213077     0.23500
C2401       C  0.82851343  0.88373348  0.26384719    -0.12400
C2402       C  0.83816240  0.87828994  0.26638346     0.04900
C2403       C  0.81213136  0.89420096  0.26944431     0.27300
C2404       C  0.80201006  0.88915083  0.26858599    -0.13100
C2405       C  0.79278588  0.89525326  0.26602786     0.05400
C2406       C  0.79369453  0.90643289  0.26389002    -0.09100
C2407       C  0.80389513  0.91147532  0.26480504     0.06300
C2408       C  0.81302179  0.90539326  0.26776792    -0.13400
Br2409     Br  0.82439539  0.88589233  0.24900543    -0.05500
Br2410     Br  0.83748516  0.87745328  0.30048289     0.00100
Br2411     Br  0.77887256  0.88824170  0.26607047     0.00600
Br2412     Br  0.82685517  0.91233270  0.26949928    -0.03800
Br2413     Br  0.84769480  0.87397386  0.25486895     0.00700
Br2414     Br  0.81546705  0.89138945  0.29427478    -0.03100
Br2415     Br  0.80086528  0.87380583  0.27088931    -0.04000
Br2416     Br  0.80570568  0.92653275  0.26132027     0.00000
C2417       C  0.97429055  0.76244878  0.23941107     0.01400
C2418       C  0.98068881  0.76398648  0.24871439     0.04200
C2419       C  0.99202907  0.76330930  0.24805227    -0.11800
C2420       C  0.99707693  0.76110724  0.23811619     0.23500
C2421       C  0.99072927  0.75990996  0.22876576    -0.12400
C2422       C  0.97939702  0.76071200  0.22938298     0.04900
C2423       C  0.00906153  0.76007771  0.23755643     0.27300
C2424       C  0.01551058  0.76923643  0.23561322    -0.13100
C2425       C  0.02685512  0.76836612  0.23560273     0.05400
C2426       C  0.03183428  0.75830810  0.23741649    -0.09100
C2427       C  0.02538469  0.74913760  0.23932089     0.06300
C2428       C  0.01403816  0.75001547  0.23937611    -0.13400
Br2429     Br  0.99760680  0.75699391  0.21514037    -0.05500
Br2430     Br  0.97399569  0.76657454  0.26250082     0.00100
Br2431     Br  0.03561015  0.78097550  0.23316198     0.00600
Br2432     Br  0.00525149  0.73747928  0.24210167    -0.03800
Br2433     Br  0.97090436  0.75999291  0.21636394     0.00700
Br2434     Br  0.00073905  0.76513976  0.26081403    -0.03100
Br2435     Br  0.00873375  0.78299221  0.23306939    -0.04000
Br2436     Br  0.03213065  0.73545276  0.24228643     0.00000
C2437       C  0.89463942  0.79902492  0.25796548     0.01400
C2438       C  0.89576008  0.80374856  0.26825083     0.04200
C2439       C  0.89003676  0.81320369  0.27085938    -0.11800
C2440       C  0.88302113  0.81792863  0.26326591     0.23500
C2441       C  0.88160614  0.81302111  0.25311224    -0.12400
C2442       C  0.88743850  0.80362647  0.25044068     0.04900
C2443       C  0.87749868  0.82826663  0.26591196     0.27300
C2444       C  0.86816587  0.82830278  0.27240069    -0.13100
C2445       C  0.86379853  0.83814099  0.27607063     0.05400
C2446       C  0.86863409  0.84799248  0.27308783    -0.09100
C2447       C  0.87759202  0.84795968  0.26610117     0.06300
C2448       C  0.88204434  0.83813184  0.26256610    -0.13400
Br2449     Br  0.87177374  0.81931285  0.24284360    -0.05500
Br2450     Br  0.90488259  0.79707225  0.27893120     0.00100
Br2451     Br  0.85167090  0.83807694  0.28579250     0.00600
Br2452     Br  0.89459619  0.83815537  0.25339205    -0.03800
Br2453     Br  0.88594074  0.79740354  0.23626716     0.00700
Br2454     Br  0.89193710  0.81984318  0.28480923    -0.03100
Br2455     Br  0.86158252  0.81481777  0.27646273    -0.04000
Br2456     Br  0.88373270  0.86143187  0.26132801     0.00000
C2457       C  0.87367666  0.66681249  0.21051657     0.01400
C2458       C  0.87928585  0.67334454  0.20300508     0.04200
C2459       C  0.88448398  0.68286724  0.20641143    -0.11800
C2460       C  0.88359813  0.68633942  0.21718158     0.23500
C2461       C  0.87745285  0.68025824  0.22453001    -0.12400
C2462       C  0.87274081  0.67041213  0.22133323     0.04900
C2463       C  0.88923947  0.69630423  0.22086993     0.27300
C2464       C  0.89873469  0.69551899  0.22707003    -0.13100
C2465       C  0.90370165  0.70488859  0.23117579     0.05400
C2466       C  0.89964962  0.71520285  0.22847097    -0.09100
C2467       C  0.89036114  0.71595260  0.22186839     0.06300
C2468       C  0.88499451  0.70654199  0.21840715    -0.13400
Br2469     Br  0.87563243  0.68545219  0.23909788    -0.05500
Br2470     Br  0.87950207  0.66968159  0.18786115     0.00100
Br2471     Br  0.91556413  0.70339776  0.24114726     0.00600
Br2472     Br  0.87168782  0.70762792  0.21039444    -0.03800
Br2473     Br  0.86575576  0.66171001  0.23219237     0.00700
Br2474     Br  0.89308718  0.69107262  0.19637492    -0.03100
Br2475     Br  0.90494526  0.68152595  0.22989341    -0.04000
Br2476     Br  0.88524439  0.72977460  0.21688187     0.00000
C2477       C  0.84739588  0.63703788  0.21427135     0.01400
C2478       C  0.83699712  0.64129512  0.21250591     0.04200
C2479       C  0.82790222  0.63609108  0.21689010    -0.11800
C2480       C  0.82914421  0.62653537  0.22290854     0.23500
C2481       C  0.83954749  0.62248331  0.22497563    -0.12400
C2482       C  0.84865525  0.62778601  0.22078107     0.04900
C2483       C  0.81947274  0.62049799  0.22660936     0.27300
C2484       C  0.81554114  0.62184656  0.23717280    -0.13100
C2485       C  0.80615621  0.61636212  0.24049175     0.05400
C2486       C  0.80068306  0.60946581  0.23325760    -0.09100
C2487       C  0.80466577  0.60811909  0.22268569     0.06300
C2488       C  0.81407065  0.61355427  0.21941290    -0.13400
Br2489     Br  0.84127251  0.60950630  0.23335930    -0.05500
Br2490     Br  0.83510942  0.65386691  0.20356948     0.00100
Br2491     Br  0.80096132  0.61814514  0.25503104     0.00600
Br2492     Br  0.81957205  0.61157687  0.20499759    -0.03800
Br2493     Br  0.86289607  0.62252618  0.22426883     0.00700
Br2494     Br  0.81365655  0.64186304  0.21447995    -0.03100
Br2495     Br  0.82305475  0.63124964  0.24704145    -0.04000
Br2496     Br  0.79689848  0.59938842  0.21238932     0.00000
C2497       C  0.90609721  0.90851969  0.33578284     0.01400
C2498       C  0.91029820  0.90643164  0.32541131     0.04200
C2499       C  0.90441543  0.90011447  0.31803831    -0.11800
C2500       C  0.89402808  0.89639010  0.32071816     0.23500
C2501       C  0.88975995  0.89854961  0.33102215    -0.12400
C2502       C  0.89589063  0.90435665  0.33863120     0.04900
C2503       C  0.88755642  0.89036732  0.31260386     0.27300
C2504       C  0.88231052  0.89598402  0.30425516    -0.13100
C2505       C  0.87642239  0.89031714  0.29637114     0.05400
C2506       C  0.87531845  0.87897580  0.29704775    -0.09100
C2507       C  0.88061984  0.87336115  0.30545768     0.06300
C2508       C  0.88684135  0.87904729  0.31309016    -0.13400
Br2509     Br  0.87548577  0.89354922  0.33467180    -0.05500
Br2510     Br  0.92382724  0.91271168  0.32097536     0.00100
Br2511     Br  0.87048665  0.89818081  0.28430838     0.00600
Br2512     Br  0.89443984  0.87136641  0.32428733    -0.03800
Br2513     Br  0.89053978  0.90601381  0.35313542     0.00700
Br2514     Br  0.91061606  0.89639695  0.30426437    -0.03100
Br2515     Br  0.88315753  0.91152368  0.30370527    -0.04000
Br2516     Br  0.87902812  0.85794843  0.30703988     0.00000
C2517       C  0.85261062  0.10719554  0.39672781     0.01400
C2518       C  0.84427804  0.11264118  0.40232071     0.04200
C2519       C  0.83690197  0.11918030  0.39666733    -0.11800
C2520       C  0.83718510  0.11962292  0.38532334     0.23500
C2521       C  0.84515697  0.11381344  0.37969052    -0.12400
C2522       C  0.85310768  0.10802213  0.38536223     0.04900
C2523       C  0.82909828  0.12616061  0.37930002     0.27300
C2524       C  0.81836686  0.12250452  0.37829714    -0.13100
C2525       C  0.81070939  0.12874504  0.37269656     0.05400
C2526       C  0.81384474  0.13838757  0.36758376    -0.09100
C2527       C  0.82464108  0.14186947  0.36829675     0.06300
C2528       C  0.83217064  0.13594963  0.37439210    -0.13400
Br2529     Br  0.84507747  0.11368183  0.36412701    -0.05500
Br2530     Br  0.84230869  0.11063003  0.41762056     0.00100
Br2531     Br  0.79587442  0.12417328  0.37221299     0.00600
Br2532     Br  0.84672269  0.14124520  0.37600900    -0.03800
Br2533     Br  0.86505893  0.10197577  0.37742793     0.00700
Br2534     Br  0.82643708  0.12767085  0.40446693    -0.03100
Br2535     Br  0.81423398  0.10878380  0.38435160    -0.04000
Br2536     Br  0.82928193  0.15441198  0.36040879     0.00000
C2537       C  0.90170683  0.03301177  0.40480993     0.01400
C2538       C  0.91281267  0.03042763  0.40461130     0.04200
C2539       C  0.91623771  0.02014107  0.40119502    -0.11800
C2540       C  0.90865304  0.01250862  0.39753706     0.23500
C2541       C  0.89761385  0.01518358  0.39736762    -0.12400
C2542       C  0.89411883  0.02531081  0.40115987     0.04900
C2543       C  0.91222785  0.00159824  0.39400592     0.27300
C2544       C  0.91612981  0.99997048  0.38346037    -0.13100
C2545       C  0.91917007  0.98956715  0.38003402     0.05400
C2546       C  0.91838145  0.98074642  0.38715943    -0.09100
C2547       C  0.91454061  0.98239333  0.39772281     0.06300
C2548       C  0.91148460  0.99278733  0.40113865    -0.13400
Br2549     Br  0.88727987  0.00484957  0.39198262    -0.05500
Br2550     Br  0.92346714  0.04112143  0.40843868     0.00100
Br2551     Br  0.92465207  0.98744893  0.36564528     0.00600
Br2552     Br  0.90622357  0.99500160  0.41559854    -0.03800
Br2553     Br  0.87885244  0.02824244  0.40192639     0.00700
Br2554     Br  0.93133397  0.01639601  0.40163353    -0.03100
Br2555     Br  0.91727489  0.01203434  0.37372881    -0.04000
Br2556     Br  0.91306092  0.97031764  0.40739268     0.00000
C2557       C  0.91099294  0.16382791  0.59288582     0.01400
C2558       C  0.89996417  0.16565709  0.59039758     0.04200
C2559       C  0.89376303  0.17278065  0.59671473    -0.11800
C2560       C  0.89816776  0.17747509  0.60605256     0.23500
C2561       C  0.90893756  0.17533223  0.60887916    -0.12400
C2562       C  0.91546894  0.16894181  0.60211750     0.04900
C2563       C  0.89144529  0.18473980  0.61283788     0.27300
C2564       C  0.89227726  0.19601761  0.61167597    -0.13100
C2565       C  0.88560984  0.20288772  0.61778296     0.05400
C2566       C  0.87808429  0.19851814  0.62507543    -0.09100
C2567       C  0.87732659  0.18725397  0.62631828     0.06300
C2568       C  0.88401478  0.18037702  0.62024260    -0.13400
Br2569     Br  0.91465145  0.18111819  0.62216527    -0.05500
Br2570     Br  0.89278133  0.15787889  0.57896810     0.00100
Br2571     Br  0.88691256  0.21829786  0.61630062     0.00600
Br2572     Br  0.88307243  0.16496267  0.62206683    -0.03800
Br2573     Br  0.93069229  0.16807887  0.60532633     0.00700
Br2574     Br  0.87911170  0.17616641  0.59263649    -0.03100
Br2575     Br  0.90258267  0.20201888  0.60170304    -0.04000
Br2576     Br  0.86696620  0.18125843  0.63621588     0.00000
C2577       C  0.92229054  0.11643498  0.51861833     0.01400
C2578       C  0.91868606  0.10564263  0.51795292     0.04200
C2579       C  0.91467391  0.10154693  0.50814927    -0.11800
C2580       C  0.91417080  0.10820733  0.49898250     0.23500
C2581       C  0.91766709  0.11899495  0.49964142    -0.12400
C2582       C  0.92178700  0.12308459  0.50940675     0.04900
C2583       C  0.91027865  0.10375303  0.48855860     0.27300
C2584       C  0.91767861  0.09924174  0.48123052    -0.13100
C2585       C  0.91406991  0.09511460  0.47128544     0.05400
C2586       C  0.90296560  0.09525928  0.46871243    -0.09100
C2587       C  0.89553375  0.09953118  0.47621814     0.06300
C2588       C  0.89921429  0.10394824  0.48601444    -0.13400
Br2589     Br  0.91692372  0.12808551  0.48705887    -0.05500
Br2590     Br  0.91890311  0.09648519  0.53051448     0.00100
Br2591     Br  0.92450323  0.08982765  0.46103032     0.00600
Br2592     Br  0.88915134  0.11041312  0.49595339    -0.03800
Br2593     Br  0.92736059  0.13760053  0.50993051     0.00700
Br2594     Br  0.90991763  0.08675840  0.50717384    -0.03100
Br2595     Br  0.93281728  0.09888330  0.48483993    -0.04000
Br2596     Br  0.88023361  0.09880764  0.47342939     0.00000
C2597       C  0.10004729  0.84332527  0.39618349     0.01400
C2598       C  0.10181313  0.84481653  0.38504729     0.04200
C2599       C  0.10725154  0.83688279  0.37900369    -0.11800
C2600       C  0.11115343  0.82749467  0.38406525     0.23500
C2601       C  0.10948493  0.82602379  0.39520235    -0.12400
C2602       C  0.10388024  0.83387330  0.40123258     0.04900
C2603       C  0.11727678  0.81936296  0.37767433     0.27300
C2604       C  0.11196770  0.81038039  0.37316399    -0.13100
C2605       C  0.11772687  0.80289025  0.36682585     0.05400
C2606       C  0.12879568  0.80454239  0.36462706    -0.09100
C2607       C  0.13406592  0.81364062  0.36911793     0.06300
C2608       C  0.12837122  0.82085385  0.37579830    -0.13400
Br2609     Br  0.11497003  0.81325599  0.40216307    -0.05500
Br2610     Br  0.09730446  0.85798937  0.37812332     0.00100
Br2611     Br  0.11049964  0.79006471  0.36175158     0.00600
Br2612     Br  0.13574197  0.83283847  0.38248697    -0.03800
Br2613     Br  0.10111597  0.83145979  0.41633338     0.00700
Br2614     Br  0.10945225  0.83885462  0.36374094    -0.03100
Br2615     Br  0.09675884  0.80838330  0.37572681    -0.04000
Br2616     Br  0.14894733  0.81673905  0.36569643     0.00000
C2617       C  0.02903775  0.89565780  0.40530479     0.01400
C2618       C  0.02846016  0.89792182  0.39414461     0.04200
C2619       C  0.01885111  0.90193261  0.38960924    -0.11800
C2620       C  0.00991718  0.90417951  0.39622950     0.23500
C2621       C  0.01055786  0.90224765  0.40739631    -0.12400
C2622       C  0.02000064  0.89782423  0.41190330     0.04900
C2623       C  0.99974225  0.90839126  0.39147428     0.27300
C2624       C  0.99857979  0.91947498  0.38931776    -0.13100
C2625       C  0.98873556  0.92350534  0.38533125     0.05400
C2626       C  0.97981451  0.91653276  0.38391467    -0.09100
C2627       C  0.98110921  0.90535862  0.38585554     0.06300
C2628       C  0.99110511  0.90131175  0.38941958    -0.13400
Br2629     Br  0.99840236  0.90568220  0.41648963    -0.05500
Br2630     Br  0.04098077  0.89627239  0.38505172     0.00100
Br2631     Br  0.98778428  0.93849155  0.38124235     0.00600
Br2632     Br  0.99303526  0.88602234  0.39162111    -0.03800
Br2633     Br  0.02022942  0.89425044  0.42703505     0.00700
Br2634     Br  0.01783687  0.90429236  0.37427465    -0.03100
Br2635     Br  0.01048759  0.92914237  0.39198159    -0.04000
Br2636     Br  0.96912941  0.89551894  0.38437074     0.00000
C2637       C  0.20030112  0.87934730  0.61780329     0.01400
C2638       C  0.19107812  0.88454915  0.62209987     0.04200
C2639       C  0.18447388  0.89090484  0.61540486    -0.11800
C2640       C  0.18678656  0.89182762  0.60434517     0.23500
C2641       C  0.19588356  0.88662408  0.60001447    -0.12400
C2642       C  0.20274778  0.88058465  0.60673493     0.04900
C2643       C  0.17957558  0.89822946  0.59725833     0.27300
C2644       C  0.17030729  0.89343013  0.59276525    -0.13100
C2645       C  0.16320635  0.89959844  0.58641985     0.05400
C2646       C  0.16540414  0.91059653  0.58448104    -0.09100
C2647       C  0.17488015  0.91529120  0.58870365     0.06300
C2648       C  0.18190581  0.90913610  0.59513895    -0.13400
Br2649     Br  0.19885914  0.88778268  0.58479873    -0.05500
Br2650     Br  0.18696199  0.88260774  0.63699042     0.00100
Br2651     Br  0.15022584  0.89304406  0.58085814     0.00600
Br2652     Br  0.19471090  0.91562178  0.60115817    -0.03800
Br2653     Br  0.21583714  0.87463499  0.60075681     0.00700
Br2654     Br  0.17215297  0.89837115  0.62131285    -0.03100
Br2655     Br  0.16732901  0.87840068  0.59546018    -0.04000
Br2656     Br  0.17850734  0.93003647  0.58531361     0.00000
C2657       C  0.09665492  0.90321281  0.46251230     0.01400
C2658       C  0.10038498  0.89655883  0.47097088     0.04200
C2659       C  0.10456933  0.90119502  0.48045330    -0.11800
C2660       C  0.10469143  0.91247994  0.48174322     0.23500
C2661       C  0.10089313  0.91914539  0.47338342    -0.12400
C2662       C  0.09706478  0.91454523  0.46372122     0.04900
C2663       C  0.10861943  0.91725666  0.49201660     0.27300
C2664       C  0.10184567  0.91738977  0.50113007    -0.13100
C2665       C  0.10579674  0.92108524  0.51110145     0.05400
C2666       C  0.11642056  0.92506811  0.51191875    -0.09100
C2667       C  0.12311924  0.92518370  0.50273941     0.06300
C2668       C  0.11925302  0.92120125  0.49282782    -0.13400
Br2669     Br  0.10080604  0.93458967  0.47529589    -0.05500
Br2670     Br  0.09912355  0.88107253  0.47002150     0.00100
Br2671     Br  0.09686741  0.91997334  0.52378507     0.00600
Br2672     Br  0.12853216  0.92100958  0.48035967    -0.03800
Br2673     Br  0.09284687  0.92385955  0.45200664     0.00700
Br2674     Br  0.11008047  0.89209324  0.49180714    -0.03100
Br2675     Br  0.08714004  0.91243872  0.49991924    -0.04000
Br2676     Br  0.13752829  0.93098005  0.50368705     0.00000
C2677       C  0.10521718  0.10387513  0.65412692     0.01400
C2678       C  0.10666487  0.11481948  0.65132815     0.04200
C2679       C  0.11285366  0.12162386  0.65797316    -0.11800
C2680       C  0.11767032  0.11751918  0.66738150     0.23500
C2681       C  0.11633107  0.10658656  0.67013688    -0.12400
C2682       C  0.11008155  0.09977837  0.66355068     0.04900
C2683       C  0.12373949  0.12478264  0.67468419     0.27300
C2684       C  0.13481655  0.12664221  0.67304879    -0.13100
C2685       C  0.14062927  0.13313848  0.68032885     0.05400
C2686       C  0.13544360  0.13750700  0.68947741    -0.09100
C2687       C  0.12428067  0.13571455  0.69100133     0.06300
C2688       C  0.11843320  0.12954112  0.68349985    -0.13400
Br2689     Br  0.12297029  0.10103527  0.68306336    -0.05500
Br2690     Br  0.10054210  0.12049053  0.63819726     0.00100
Br2691     Br  0.15559226  0.13635674  0.67749709     0.00600
Br2692     Br  0.10311797  0.12738979  0.68533663    -0.03800
Br2693     Br  0.10774113  0.08499530  0.66778375     0.00700
Br2694     Br  0.11470383  0.13662049  0.65428842    -0.03100
Br2695     Br  0.14200197  0.12011538  0.66090191    -0.04000
Br2696     Br  0.11699045  0.14094320  0.70371897     0.00000
C2697       C  0.03324471  0.09450092  0.60389051     0.01400
C2698       C  0.02462787  0.09645137  0.61109402     0.04200
C2699       C  0.01466601  0.10023855  0.60718103    -0.11800
C2700       C  0.01315615  0.10187991  0.59606150     0.23500
C2701       C  0.02170502  0.09995903  0.58885801    -0.12400
C2702       C  0.03177765  0.09646252  0.59275923     0.04900
C2703       C  0.00247796  0.10539984  0.59193440     0.27300
C2704       C  0.99478393  0.09765277  0.58879444    -0.13100
C2705       C  0.98457665  0.10093689  0.58507123     0.05400
C2706       C  0.98204614  0.11200763  0.58437578    -0.09100
C2707       C  0.98978667  0.11976468  0.58749858     0.06300
C2708       C  0.99997184  0.11645491  0.59127956    -0.13400
Br2709     Br  0.01948707  0.10197876  0.57359976    -0.05500
Br2710     Br  0.02608891  0.09332954  0.62626288     0.00100
Br2711     Br  0.97391085  0.09021665  0.58139059     0.00600
Br2712     Br  0.01059369  0.12702751  0.59548425    -0.03800
Br2713     Br  0.04365435  0.09495402  0.58281768     0.00700
Br2714     Br  0.00291091  0.10296373  0.61699844    -0.03100
Br2715     Br  0.99830274  0.08252157  0.58963064    -0.04000
Br2716     Br  0.98667043  0.13494974  0.58618271     0.00000
C2717       C  0.11326726  0.98204814  0.58008954     0.01400
C2718       C  0.12114358  0.99003080  0.58209074     0.04200
C2719       C  0.11806038  0.00018227  0.58610758    -0.11800
C2720       C  0.10708589  0.00250675  0.58785150     0.23500
C2721       C  0.09920350  0.99459111  0.58576396    -0.12400
C2722       C  0.10230119  0.98431875  0.58207199     0.04900
C2723       C  0.10384098  0.01323156  0.59203364     0.27300
C2724       C  0.10176792  0.01459640  0.60310962    -0.13100
C2725       C  0.09848461  0.02470060  0.60707729     0.05400
C2726       C  0.09742387  0.03352162  0.59999193    -0.09100
C2727       C  0.09962408  0.03217939  0.58892631     0.06300
C2728       C  0.10276235  0.02203125  0.58494377    -0.13400
Br2729     Br  0.08415366  0.99790442  0.58792445    -0.05500
Br2730     Br  0.13612661  0.98731471  0.57888102     0.00100
Br2731     Br  0.09487270  0.02625708  0.62212136     0.00600
Br2732     Br  0.10546646  0.02010157  0.56975571    -0.03800
Br2733     Br  0.09156170  0.97320343  0.58026647     0.00700
Br2734     Br  0.12884610  0.01096274  0.58925018    -0.03100
Br2735     Br  0.10333096  0.00253708  0.61279990    -0.04000
Br2736     Br  0.09861449  0.04431274  0.57925676     0.00000
C2737       C  0.90868906  0.35100366  0.89745953     0.01400
C2738       C  0.89748532  0.35018684  0.89948409     0.04200
C2739       C  0.89124973  0.34231003  0.89415900    -0.11800
C2740       C  0.89595184  0.33568064  0.88623162     0.23500
C2741       C  0.90701228  0.33673245  0.88388360    -0.12400
C2742       C  0.91343283  0.34411073  0.88969240     0.04900
C2743       C  0.88921477  0.32769772  0.88028492     0.27300
C2744       C  0.88943835  0.31669556  0.88317315    -0.13100
C2745       C  0.88307873  0.30916853  0.87749560     0.05400
C2746       C  0.87623961  0.31265690  0.86914135    -0.09100
C2747       C  0.87586901  0.32366075  0.86637124     0.06300
C2748       C  0.88248626  0.33113418  0.87178866    -0.13400
Br2749     Br  0.91331930  0.32806057  0.87260457    -0.05500
Br2750     Br  0.89036502  0.36029824  0.90893577     0.00100
Br2751     Br  0.88377553  0.29405616  0.88104108     0.00600
Br2752     Br  0.88251343  0.34606319  0.86744587    -0.03800
Br2753     Br  0.92882687  0.34413811  0.88737999     0.00700
Br2754     Br  0.87622023  0.34047313  0.89777210    -0.03100
Br2755     Br  0.89843223  0.31198065  0.89494176    -0.04000
Br2756     Br  0.86618739  0.32848117  0.85519235     0.00000
C2757       C  0.84992880  0.40500844  0.09124175     0.01400
C2758       C  0.85109052  0.39378751  0.09281115     0.04200
C2759       C  0.84303172  0.38793897  0.09826010    -0.11800
C2760       C  0.83377814  0.39325795  0.10212714     0.23500
C2761       C  0.83246579  0.40438375  0.10032080    -0.12400
C2762       C  0.84052170  0.41025843  0.09491536     0.04900
C2763       C  0.82558017  0.38726578  0.10844845     0.27300
C2764       C  0.81692184  0.38213911  0.10320072    -0.13100
C2765       C  0.80893106  0.37682428  0.10924838     0.05400
C2766       C  0.80975541  0.37630333  0.12061555    -0.09100
C2767       C  0.81847914  0.38150358  0.12584999     0.06300
C2768       C  0.82629566  0.38702645  0.11976357    -0.13400
Br2769     Br  0.81958433  0.41152742  0.10533874    -0.05500
Br2770     Br  0.86394916  0.38645820  0.08801668     0.00100
Br2771     Br  0.79648602  0.37102817  0.10186499     0.00600
Br2772     Br  0.83806367  0.39434753  0.12688146    -0.03800
Br2773     Br  0.83843886  0.42543588  0.09224605     0.00700
Br2774     Br  0.84469208  0.37265636  0.10063657    -0.03100
Br2775     Br  0.81600007  0.38255681  0.08768412    -0.04000
Br2776     Br  0.82013101  0.38084322  0.14132247     0.00000
C2777       C  0.92357981  0.39722307  0.97123769     0.01400
C2778       C  0.91237046  0.39817834  0.97321438     0.04200
C2779       C  0.90863318  0.40160923  0.98337422    -0.11800
C2780       C  0.91601068  0.40438522  0.99154230     0.23500
C2781       C  0.92715990  0.40346576  0.98963172    -0.12400
C2782       C  0.93094590  0.39977803  0.97957653     0.04900
C2783       C  0.91202029  0.40843381  0.00209849     0.27300
C2784       C  0.90960852  0.41945024  0.00342240    -0.13100
C2785       C  0.90549168  0.42326210  0.01329406     0.05400
C2786       C  0.90414233  0.41612345  0.02206692    -0.09100
C2787       C  0.90683687  0.40511293  0.02077587     0.06300
C2788       C  0.91055375  0.40126616  0.01076092    -0.13400
Br2789     Br  0.93721718  0.40736102  0.00085880    -0.05500
Br2790     Br  0.90198430  0.39554623  0.96191214     0.00100
Br2791     Br  0.90112484  0.43815413  0.01446283     0.00600
Br2792     Br  0.91362528  0.38613626  0.00881637    -0.03800
Br2793     Br  0.94624510  0.39777701  0.97753511     0.00700
Br2794     Br  0.89335182  0.40264697  0.98616530    -0.03100
Br2795     Br  0.91196378  0.42929032  0.99161882    -0.04000
Br2796     Br  0.90610309  0.39530872  0.03282610     0.00000
C2797       C  0.91265507  0.59930310  0.15825915     0.01400
C2798       C  0.91050685  0.61019023  0.15567498     0.04200
C2799       C  0.90430394  0.61660155  0.16268610    -0.11800
C2800       C  0.89991501  0.61210807  0.17212546     0.23500
C2801       C  0.90201191  0.60126240  0.17472703    -0.12400
C2802       C  0.90850804  0.59491721  0.16791073     0.04900
C2803       C  0.89287622  0.61877416  0.17914961     0.27300
C2804       C  0.89728885  0.62441949  0.18795594    -0.13100
C2805       C  0.89066836  0.63103265  0.19438242     0.05400
C2806       C  0.87959980  0.63221298  0.19187826    -0.09100
C2807       C  0.87520644  0.62650748  0.18302732     0.06300
C2808       C  0.88181782  0.61973245  0.17676918    -0.13400
Br2809     Br  0.89588077  0.59512927  0.18762271    -0.05500
Br2810     Br  0.91545087  0.61625566  0.14224139     0.00100
Br2811     Br  0.89678011  0.63799237  0.20691104     0.00600
Br2812     Br  0.87580747  0.61179428  0.16479449    -0.03800
Br2813     Br  0.91213840  0.58039719  0.17215207     0.00700
Br2814     Br  0.90169827  0.63158485  0.15938327    -0.03100
Br2815     Br  0.91246860  0.62310209  0.19111950    -0.04000
Br2816     Br  0.86028022  0.62836823  0.17897635     0.00000
C2817       C  0.92344911  0.52550959  0.10906855     0.01400
C2818       C  0.92309327  0.51667156  0.11620627     0.04200
C2819       C  0.91993591  0.50642411  0.11243829    -0.11800
C2820       C  0.91699051  0.50499507  0.10156050     0.23500
C2821       C  0.91720907  0.51385041  0.09446010    -0.12400
C2822       C  0.92042733  0.52408179  0.09820233     0.04900
C2823       C  0.91338152  0.49424278  0.09764779     0.27300
C2824       C  0.92095247  0.48669196  0.09383901    -0.13100
C2825       C  0.91751138  0.47647877  0.09022074     0.05400
C2826       C  0.90639795  0.47390677  0.08997164    -0.09100
C2827       C  0.89881805  0.48157522  0.09370741     0.06300
C2828       C  0.90233714  0.49162200  0.09768429    -0.13400
Br2829     Br  0.91305260  0.51190737  0.07960209    -0.05500
Br2830     Br  0.92717089  0.51852538  0.13109522     0.00100
Br2831     Br  0.92815580  0.46587626  0.08615522     0.00600
Br2832     Br  0.89202948  0.50197285  0.10305725    -0.03800
Br2833     Br  0.92026653  0.53625145  0.08853692     0.00700
Br2834     Br  0.91968241  0.49427161  0.12212192    -0.03100
Br2835     Br  0.93604151  0.49047834  0.09345043    -0.04000
Br2836     Br  0.88352925  0.47878543  0.09277133     0.00000
C2837       C  0.10325408  0.41246647  0.83254836     0.01400
C2838       C  0.09873457  0.40907176  0.82265334     0.04200
C2839       C  0.10465449  0.40234055  0.81569645    -0.11800
C2840       C  0.11530868  0.39941016  0.81831955     0.23500
C2841       C  0.12003548  0.40324372  0.82790927    -0.12400
C2842       C  0.11393879  0.40949143  0.83515728     0.04900
C2843       C  0.12144661  0.39202410  0.81117150     0.27300
C2844       C  0.12240107  0.38103145  0.81387093    -0.13100
C2845       C  0.12847565  0.37405274  0.80730970     0.05400
C2846       C  0.13324571  0.37794026  0.79774983    -0.09100
C2847       C  0.13208901  0.38892329  0.79494272     0.06300
C2848       C  0.12639687  0.39597925  0.80176316    -0.13400
Br2849     Br  0.13490282  0.39987425  0.83106985    -0.05500
Br2850     Br  0.08463329  0.41402134  0.81829965     0.00100
Br2851     Br  0.13081310  0.35935439  0.81185366     0.00600
Br2852     Br  0.12547755  0.41112552  0.79833379    -0.03800
Br2853     Br  0.12005605  0.41324330  0.84896479     0.00700
Br2854     Br  0.09813907  0.39696753  0.80261778    -0.03100
Br2855     Br  0.11536816  0.37556796  0.82661799    -0.04000
Br2856     Br  0.13783472  0.39430081  0.78151782     0.00000
C2857       C  0.02848796  0.42368678  0.87953332     0.01400
C2858       C  0.02674344  0.42243694  0.89070548     0.04200
C2859       C  0.01659166  0.41914042  0.89456552    -0.11800
C2860       C  0.00811733  0.41699512  0.88730952     0.23500
C2861       C  0.00990155  0.41796008  0.87613666    -0.12400
C2862       C  0.02007601  0.42123302  0.87224266     0.04900
C2863       C  0.99742823  0.41347446  0.89149496     0.27300
C2864       C  0.99525726  0.40241926  0.89290183    -0.13100
C2865       C  0.98538469  0.39905744  0.89739686     0.05400
C2866       C  0.97758836  0.40675332  0.90052854    -0.09100
C2867       C  0.97976456  0.41783324  0.89907268     0.06300
C2868       C  0.98963707  0.42117232  0.89452637    -0.13400
Br2869     Br  0.99831861  0.41486777  0.86621996    -0.05500
Br2870     Br  0.03843007  0.42461069  0.90076053     0.00100
Br2871     Br  0.98288255  0.38389283  0.89981457     0.00600
Br2872     Br  0.99258071  0.43630179  0.89245290    -0.03800
Br2873     Br  0.02233311  0.42261941  0.85692780     0.00700
Br2874     Br  0.01425162  0.41745167  0.90984085    -0.03100
Br2875     Br  0.00598582  0.39190607  0.88885021    -0.04000
Br2876     Br  0.96912762  0.42845874  0.90304805     0.00000
C2877       C  0.16133751  0.60799271  0.89548171     0.01400
C2878       C  0.17101056  0.61207681  0.89995795     0.04200
C2879       C  0.17841665  0.61769375  0.89342735    -0.11800
C2880       C  0.17637154  0.61906194  0.88234741     0.23500
C2881       C  0.16674851  0.61503758  0.87785417    -0.12400
C2882       C  0.15917133  0.60969092  0.88441235     0.04900
C2883       C  0.18440014  0.62470192  0.87543766     0.27300
C2884       C  0.18330065  0.63579436  0.87330139    -0.13100
C2885       C  0.19108964  0.64122010  0.86705987     0.05400
C2886       C  0.20014363  0.63558817  0.86299080    -0.09100
C2887       C  0.20118455  0.62443111  0.86514770     0.06300
C2888       C  0.19328113  0.61901394  0.87124301    -0.13400
Br2889     Br  0.16405496  0.61678860  0.86263783    -0.05500
Br2890     Br  0.17456733  0.60950221  0.91487588     0.00100
Br2891     Br  0.18900525  0.65629970  0.86380190     0.00600
Br2892     Br  0.19460537  0.60374952  0.87397714    -0.03800
Br2893     Br  0.14557750  0.60526472  0.87823226     0.00700
Br2894     Br  0.19150746  0.62346329  0.89958553    -0.03100
Br2895     Br  0.17106863  0.64352643  0.87901495    -0.04000
Br2896     Br  0.21374153  0.61655422  0.86045292     0.00000
C2897       C  0.09333329  0.48465656  0.88361747     0.01400
C2898       C  0.09478872  0.49375382  0.87696639     0.04200
C2899       C  0.09895806  0.50339390  0.88130766    -0.11800
C2900       C  0.10159864  0.50403039  0.89233964     0.23500
C2901       C  0.10031505  0.49488785  0.89895509    -0.12400
C2902       C  0.09620113  0.48522133  0.89460466     0.04900
C2903       C  0.10547842  0.51440030  0.89700307     0.27300
C2904       C  0.11660473  0.51651175  0.89785660    -0.13100
C2905       C  0.12025022  0.52641369  0.90210878     0.05400
C2906       C  0.11275928  0.53435447  0.90542468    -0.09100
C2907       C  0.10159505  0.53221992  0.90447330     0.06300
C2908       C  0.09799258  0.52224131  0.90038501    -0.13400
Br2909     Br  0.10425915  0.49564675  0.91397161    -0.05500
Br2910     Br  0.09068771  0.49314787  0.86198089     0.00100
Br2911     Br  0.13554312  0.52879760  0.90377233     0.00600
Br2912     Br  0.08275019  0.51925813  0.89931661    -0.03800
Br2913     Br  0.09481171  0.47264139  0.90362397     0.00700
Br2914     Br  0.10109369  0.51578370  0.87217076    -0.03100
Br2915     Br  0.12682081  0.50576039  0.89315697    -0.04000
Br2916     Br  0.09113030  0.54315524  0.90809229     0.00000
C2917       C  0.11124578  0.65630142  0.09606275     0.01400
C2918       C  0.12261512  0.65523564  0.09576050     0.04200
C2919       C  0.12923169  0.66275517  0.10116568    -0.11800
C2920       C  0.12457370  0.67120847  0.10713939     0.23500
C2921       C  0.11327578  0.67219515  0.10761610    -0.12400
C2922       C  0.10663087  0.66491860  0.10195832     0.04900
C2923       C  0.13147765  0.67939833  0.11257713     0.27300
C2924       C  0.13445661  0.67809689  0.12345573    -0.13100
C2925       C  0.14007661  0.68637071  0.12887617     0.05400
C2926       C  0.14285552  0.69595838  0.12339919    -0.09100
C2927       C  0.14013849  0.69709641  0.11240464     0.06300
C2928       C  0.13445594  0.68884598  0.10703276    -0.13400
Br2929     Br  0.10694188  0.68375583  0.11590344    -0.05500
Br2930     Br  0.12927360  0.64328506  0.08832763     0.00100
Br2931     Br  0.14408449  0.68447411  0.14378288     0.00600
Br2932     Br  0.13037170  0.69058267  0.09212774    -0.03800
Br2933     Br  0.09127093  0.66747553  0.10166380     0.00700
Br2934     Br  0.14472466  0.66161981  0.10032886    -0.03100
Br2935     Br  0.13063257  0.66501575  0.13092966    -0.04000
Br2936     Br  0.14348429  0.71026392  0.10483506     0.00000
C2937       C  0.09209040  0.61395195  0.02064815     0.01400
C2938       C  0.09657777  0.62173788  0.01360464     0.04200
C2939       C  0.10052064  0.61864481  0.00339803    -0.11800
C2940       C  0.09972114  0.60784568  0.99998095     0.23500
C2941       C  0.09503502  0.60012175  0.00684419    -0.12400
C2942       C  0.09139703  0.60309396  0.01719152     0.04900
C2943       C  0.10394348  0.60449962  0.98924006     0.27300
C2944       C  0.09718767  0.60474853  0.98010191    -0.13100
C2945       C  0.10098417  0.60094861  0.97008467     0.05400
C2946       C  0.11159343  0.59696363  0.96912653    -0.09100
C2947       C  0.11836831  0.59677971  0.97825585     0.06300
C2948       C  0.11457405  0.60058872  0.98826646    -0.13400
Br2949     Br  0.09378439  0.58536806  0.00203025    -0.05500
Br2950     Br  0.09695090  0.63678842  0.01760027     0.00100
Br2951     Br  0.09166421  0.60124569  0.95764371     0.00600
Br2952     Br  0.12387964  0.60039198  0.00072562    -0.03800
Br2953     Br  0.08625766  0.59200176  0.02680070     0.00700
Br2954     Br  0.10715522  0.62915633  0.99406069    -0.03100
Br2955     Br  0.08271089  0.61027583  0.98138348    -0.04000
Br2956     Br  0.13268682  0.59082109  0.97715253     0.00000
C2957       C  0.03609664  0.60925764  0.09075199     0.01400
C2958       C  0.02802052  0.61641250  0.09435612     0.04200
C2959       C  0.01859886  0.61237025  0.09923998    -0.11800
C2960       C  0.01704681  0.60115731  0.10019740     0.23500
C2961       C  0.02520410  0.59401824  0.09680553    -0.12400
C2962       C  0.03477318  0.59806522  0.09224078     0.04900
C2963       C  0.00656403  0.59684214  0.10407899     0.27300
C2964       C  0.00516867  0.59399552  0.11497490    -0.13100
C2965       C  0.99529450  0.58960094  0.11847769     0.05400
C2966       C  0.98671699  0.58819112  0.11111708    -0.09100
C2967       C  0.98809328  0.59119343  0.10024229     0.06300
C2968       C  0.99800908  0.59543985  0.09673224    -0.13400
Br2969     Br  0.02313799  0.57867315  0.09827115    -0.05500
Br2970     Br  0.02958648  0.63171330  0.09209027     0.00100
Br2971     Br  0.99370357  0.58509704  0.13326871     0.00600
Br2972     Br  0.99992652  0.59940651  0.08182110    -0.03800
Br2973     Br  0.04621183  0.58828519  0.08832807     0.00700
Br2974     Br  0.00772534  0.62213126  0.10456597    -0.03100
Br2975     Br  0.01681117  0.59617500  0.12505756    -0.04000
Br2976     Br  0.97625810  0.58999472  0.09020409     0.00000
C2977       C  0.33988641  0.91091682  0.90041671     0.01400
C2978       C  0.33244860  0.91634967  0.89366725     0.04200
C2979       C  0.32539198  0.91043656  0.88703298    -0.11800
C2980       C  0.32526167  0.89911210  0.88753071     0.23500
C2981       C  0.33230097  0.89366720  0.89455534    -0.12400
C2982       C  0.33987920  0.89950068  0.90066909     0.04900
C2983       C  0.31796430  0.89291462  0.88037628     0.27300
C2984       C  0.30700374  0.89164544  0.88309285    -0.13100
C2985       C  0.30008692  0.88588528  0.87618938     0.05400
C2986       C  0.30417309  0.88120998  0.86669903    -0.09100
C2987       C  0.31513363  0.88241115  0.86401251     0.06300
C2988       C  0.32200604  0.88834967  0.87078978    -0.13400
Br2989     Br  0.33149264  0.87816394  0.89575488    -0.05500
Br2990     Br  0.33138627  0.93188481  0.89374065     0.00100
Br2991     Br  0.28500906  0.88441853  0.87966034     0.00600
Br2992     Br  0.33699552  0.89014980  0.86702555    -0.03800
Br2993     Br  0.35078594  0.89163339  0.90850985     0.00700
Br2994     Br  0.31590390  0.91780408  0.87712616    -0.03100
Br2995     Br  0.30157108  0.89760778  0.89638260    -0.04000
Br2996     Br  0.32080634  0.87555337  0.85125384     0.00000
C2997       C  0.38522643  0.80430989  0.12226402     0.01400
C2998       C  0.38039277  0.81403976  0.11887887     0.04200
C2999       C  0.38639751  0.82162556  0.11296405    -0.11800
C3000       C  0.39730243  0.81961227  0.11051490     0.23500
C3001       C  0.40223890  0.81005185  0.11416141    -0.12400
C3002       C  0.39622020  0.80240897  0.12002729     0.04900
C3003       C  0.40346574  0.82747753  0.10389622     0.27300
C3004       C  0.40394489  0.82623112  0.09262993    -0.13100
C3005       C  0.40956333  0.83378823  0.08629071     0.05400
C3006       C  0.41434659  0.84294464  0.09114544    -0.09100
C3007       C  0.41372829  0.84422085  0.10246151     0.06300
C3008       C  0.40853241  0.83637144  0.10881390    -0.13400
Br3009     Br  0.41720788  0.80739353  0.11090301    -0.05500
Br3010     Br  0.36563516  0.81721220  0.12269487     0.00100
Br3011     Br  0.41115007  0.83113820  0.07104442     0.00600
Br3012     Br  0.40827757  0.83774971  0.12430172    -0.03800
Br3013     Br  0.40292605  0.78912260  0.12453448     0.00700
Br3014     Br  0.37966758  0.83475218  0.10803279    -0.03100
Br3015     Br  0.39678107  0.81414234  0.08591581    -0.04000
Br3016     Br  0.41929336  0.85704489  0.10932030     0.00000
C3017       C  0.41813129  0.89357706  0.01783559     0.01400
C3018       C  0.41224838  0.88677632  0.01080711     0.04200
C3019       C  0.40710945  0.89108242  0.00163250    -0.11800
C3020       C  0.40825333  0.90209068  0.99908563     0.23500
C3021       C  0.41431439  0.90884677  0.00592608    -0.12400
C3022       C  0.41900652  0.90468635  0.01539648     0.04900
C3023       C  0.40322768  0.90653809  0.98912560     0.27300
C3024       C  0.40829589  0.90507125  0.97906223    -0.13100
C3025       C  0.40363164  0.90937226  0.96964875     0.05400
C3026       C  0.39394932  0.91530569  0.97025814    -0.09100
C3027       C  0.38884335  0.91672193  0.98030896     0.06300
C3028       C  0.39344924  0.91231760  0.98971065    -0.13400
Br3029     Br  0.41624236  0.92383597  0.00221574    -0.05500
Br3030     Br  0.41174458  0.87141944  0.01325269     0.00100
Br3031     Br  0.41034394  0.90683660  0.95585654     0.00600
Br3032     Br  0.38643835  0.91427410  0.00344343    -0.03800
Br3033     Br  0.42604399  0.91446480  0.02526859     0.00700
Br3034     Br  0.39843407  0.88192841  0.99249783    -0.03100
Br3035     Br  0.42174022  0.89728676  0.97823313    -0.04000
Br3036     Br  0.37575981  0.92507920  0.98126682     0.00000
C3037       C  0.60693627  0.90946476  0.14769136     0.01400
C3038       C  0.60981255  0.89860303  0.14571676     0.04200
C3039       C  0.61556239  0.89272852  0.15352520    -0.11800
C3040       C  0.61870411  0.89771681  0.16322115     0.23500
C3041       C  0.61603779  0.90857937  0.16515077    -0.12400
C3042       C  0.61004298  0.91440828  0.15748675     0.04900
C3043       C  0.62472548  0.89149215  0.17145283     0.27300
C3044       C  0.61922730  0.88707471  0.18033310    -0.13100
C3045       C  0.62495551  0.88144750  0.18833200     0.05400
C3046       C  0.63620116  0.87986128  0.18725530    -0.09100
C3047       C  0.64160233  0.88392124  0.17808562     0.06300
C3048       C  0.63592020  0.88997550  0.17037651    -0.13400
Br3049     Br  0.62061157  0.91541423  0.17837595    -0.05500
Br3050     Br  0.60640894  0.89178529  0.13213733     0.00100
Br3051     Br  0.61733420  0.87653169  0.20098830     0.00600
Br3052     Br  0.64347109  0.89638914  0.15839236    -0.03800
Br3053     Br  0.60557548  0.92893740  0.16083218     0.00700
Br3054     Br  0.61914392  0.87778191  0.15101571    -0.03100
Br3055     Br  0.60381024  0.88887317  0.18154574    -0.04000
Br3056     Br  0.65664636  0.88068687  0.17562979     0.00000
C3057       C  0.53708432  0.91262583  0.09357738     0.01400
C3058       C  0.53577883  0.90982795  0.08262127     0.04200
C3059       C  0.52603332  0.90521031  0.07901830    -0.11800
C3060       C  0.51749052  0.90351264  0.08629823     0.23500
C3061       C  0.51886239  0.90606520  0.09727525    -0.12400
C3062       C  0.52860775  0.91063294  0.10091276     0.04900
C3063       C  0.50683245  0.89968666  0.08232304     0.27300
C3064       C  0.49884906  0.90725169  0.07948616    -0.13100
C3065       C  0.48862663  0.90374367  0.07596906     0.05400
C3066       C  0.48634019  0.89260800  0.07521822    -0.09100
C3067       C  0.49442366  0.88504175  0.07791821     0.06300
C3068       C  0.50461269  0.88858115  0.08150703    -0.13400
Br3069     Br  0.50725595  0.90341430  0.10727812    -0.05500
Br3070     Br  0.54739891  0.91209161  0.07254635     0.00100
Br3071     Br  0.47764710  0.91427132  0.07271991     0.00600
Br3072     Br  0.51557519  0.87824723  0.08535202    -0.03800
Br3073     Br  0.52999943  0.91477252  0.11584911     0.00700
Br3074     Br  0.52430977  0.90117682  0.06410008    -0.03100
Br3075     Br  0.50196444  0.92246747  0.08058205    -0.04000
Br3076     Br  0.49177622  0.86979050  0.07625463     0.00000
C3077       C  0.37691468  0.13177758  0.79734423     0.01400
C3078       C  0.37159040  0.12582769  0.80554702     0.04200
C3079       C  0.37758647  0.11956982  0.81292851    -0.11800
C3080       C  0.38892291  0.11934622  0.81240260     0.23500
C3081       C  0.39426499  0.12533289  0.80439042    -0.12400
C3082       C  0.38833255  0.13136591  0.79679161     0.04900
C3083       C  0.39524969  0.11261965  0.82012518     0.27300
C3084       C  0.39885240  0.11702021  0.82996364    -0.13100
C3085       C  0.40496156  0.11069957  0.83718074     0.05400
C3086       C  0.40767196  0.09994089  0.83453762    -0.09100
C3087       C  0.40398200  0.09553347  0.82468952     0.06300
C3088       C  0.39774899  0.10183389  0.81756121    -0.13400
Br3089     Br  0.40981821  0.12513551  0.80382614    -0.05500
Br3090     Br  0.35610668  0.12645910  0.80719478     0.00100
Br3091     Br  0.40907458  0.11668556  0.85094578     0.00600
Br3092     Br  0.39261941  0.09575217  0.80418760    -0.03800
Br3093     Br  0.39604349  0.13834435  0.78520990     0.00700
Br3094     Br  0.37032612  0.11121113  0.82385636    -0.03100
Br3095     Br  0.39534203  0.13175017  0.83352208    -0.04000
Br3096     Br  0.40785410  0.08101973  0.82063779     0.00000
C3097       C  0.41549503  0.03019208  0.88992195     0.01400
C3098       C  0.40433381  0.02839424  0.89149886     0.04200
C3099       C  0.40060431  0.01826845  0.89503979    -0.11800
C3100       C  0.40798729  0.01003902  0.89761679     0.23500
C3101       C  0.41912863  0.01192810  0.89652286    -0.12400
C3102       C  0.42287772  0.02183575  0.89242134     0.04900
C3103       C  0.40401907  0.99934128  0.90133779     0.27300
C3104       C  0.40052494  0.99796729  0.91204597    -0.13100
C3105       C  0.39638868  0.98796005  0.91545020     0.05400
C3106       C  0.39631411  0.97904706  0.90833806    -0.09100
C3107       C  0.39999872  0.98040384  0.89764672     0.06300
C3108       C  0.40361753  0.99057365  0.89411329    -0.13400
Br3109     Br  0.42924288  0.00084168  0.90066988    -0.05500
Br3110     Br  0.39405737  0.03991304  0.88950439     0.00100
Br3111     Br  0.39008016  0.98681540  0.92962152     0.00600
Br3112     Br  0.40797760  0.99257850  0.87931905    -0.03800
Br3113     Br  0.43810442  0.02345171  0.88958886     0.00700
Br3114     Br  0.38531859  0.01556345  0.89626112    -0.03100
Br3115     Br  0.40148626  0.00983890  0.92206942    -0.04000
Br3116     Br  0.40059855  0.96828782  0.88788925     0.00000
C3117       C  0.60087485  0.16321350  0.89430194     0.01400
C3118       C  0.59516641  0.17117054  0.88848593     0.04200
C3119       C  0.60079827  0.17908360  0.88259612    -0.11800
C3120       C  0.61215958  0.17929183  0.88268780     0.23500
C3121       C  0.61787675  0.17151406  0.88866426    -0.12400
C3122       C  0.61227834  0.16343234  0.89435673     0.04900
C3123       C  0.61809280  0.18774675  0.87656214     0.27300
C3124       C  0.62205124  0.18553362  0.86614846    -0.13100
C3125       C  0.62770418  0.19352194  0.86037396     0.05400
C3126       C  0.62917612  0.20388837  0.86485805    -0.09100
C3127       C  0.62516837  0.20608984  0.87528012     0.06300
C3128       C  0.61976633  0.19800771  0.88115244    -0.13400
Br3129     Br  0.63342578  0.17203545  0.88907200    -0.05500
Br3130     Br  0.57962367  0.17173491  0.88909527     0.00100
Br3131     Br  0.63390229  0.19006214  0.84653942     0.00600
Br3132     Br  0.61461662  0.20094156  0.89552894    -0.03800
Br3133     Br  0.62034894  0.15242642  0.90182551     0.00700
Br3134     Br  0.59297617  0.18974008  0.87440752    -0.03100
Br3135     Br  0.61964848  0.17152636  0.85981306    -0.04000
Br3136     Br  0.62658125  0.22031559  0.88137943     0.00000
C3137       C  0.53355531  0.10542141  0.90191893     0.01400
C3138       C  0.52571145  0.11280646  0.89819229     0.04200
C3139       C  0.51561654  0.10908508  0.89452743    -0.11800
C3140       C  0.51311403  0.09801060  0.89484817     0.23500
C3141       C  0.52090338  0.09061047  0.89854650    -0.12400
C3142       C  0.53112511  0.09428209  0.90197219     0.04900
C3143       C  0.50211225  0.09429898  0.89169575     0.27300
C3144       C  0.49356055  0.09503177  0.89913503    -0.13100
C3145       C  0.48297441  0.09232657  0.89599136     0.05400
C3146       C  0.48087185  0.08870625  0.88539690    -0.09100
C3147       C  0.48950405  0.08769830  0.87803780     0.06300
C3148       C  0.50006820  0.09055729  0.88116217    -0.13400
Br3149     Br  0.51745952  0.07545038  0.89902029    -0.05500
Br3150     Br  0.52836426  0.12813356  0.89878947     0.00100
Br3151     Br  0.47130279  0.09415920  0.90610603     0.00600
Br3152     Br  0.51178311  0.08945510  0.87100731    -0.03800
Br3153     Br  0.54189328  0.08396554  0.90639131     0.00700
Br3154     Br  0.50505604  0.11917788  0.88915923    -0.03100
Br3155     Br  0.49640767  0.09989399  0.91364160    -0.04000
Br3156     Br  0.48699475  0.08196096  0.86379674     0.00000
C3157       C  0.67144040  0.09996176  0.08557222     0.01400
C3158       C  0.68088767  0.09569541  0.09029656     0.04200
C3159       C  0.68748525  0.10226405  0.09683358    -0.11800
C3160       C  0.68486907  0.11320344  0.09842654     0.23500
C3161       C  0.67558091  0.11753605  0.09355391    -0.12400
C3162       C  0.66876492  0.11090794  0.08733569     0.04900
C3163       C  0.69173248  0.12012066  0.10543611     0.27300
C3164       C  0.68935540  0.12110571  0.11647899    -0.13100
C3165       C  0.69563572  0.12786166  0.12311180     0.05400
C3166       C  0.70469354  0.13333263  0.11883616    -0.09100
C3167       C  0.70705740  0.13229922  0.10770785     0.06300
C3168       C  0.70047048  0.12586135  0.10103178    -0.13400
Br3169     Br  0.67222575  0.13261120  0.09547441    -0.05500
Br3170     Br  0.68510197  0.08099131  0.08746596     0.00100
Br3171     Br  0.69122236  0.13012320  0.13787071     0.00600
Br3172     Br  0.70333177  0.12486990  0.08577686    -0.03800
Br3173     Br  0.65540359  0.11677114  0.08191035     0.00700
Br3174     Br  0.70011998  0.09632672  0.10369327    -0.03100
Br3175     Br  0.67739999  0.11315703  0.12247482    -0.04000
Br3176     Br  0.71958069  0.13917587  0.10150888     0.00000
C3177       C  0.61273511  0.03281666  0.07850245     0.01400
C3178       C  0.61013743  0.02445131  0.07116506     0.04200
C3179       C  0.60566151  0.01471654  0.07491990    -0.11800
C3180       C  0.60444609  0.01291224  0.08605308     0.23500
C3181       C  0.60712008  0.02115124  0.09340832    -0.12400
C3182       C  0.61091773  0.03117993  0.08964308     0.04900
C3183       C  0.60083147  0.00215895  0.08998339     0.27300
C3184       C  0.59013965  0.00057737  0.09349687    -0.13100
C3185       C  0.58679835  0.99036169  0.09718900     0.05400
C3186       C  0.59398530  0.98152483  0.09687158    -0.09100
C3187       C  0.60459252  0.98307428  0.09302966     0.06300
C3188       C  0.60808233  0.99340930  0.08991687    -0.13400
Br3189     Br  0.60581884  0.01855575  0.10868671    -0.05500
Br3190     Br  0.61350866  0.02572660  0.05603296     0.00100
Br3191     Br  0.57252436  0.98868107  0.10314137     0.00600
Br3192     Br  0.62285762  0.99562425  0.08554131    -0.03800
Br3193     Br  0.61306023  0.04276983  0.09981926     0.00700
Br3194     Br  0.60125791  0.00369998  0.06481572    -0.03100
Br3195     Br  0.58004120  0.01240204  0.09306393    -0.04000
Br3196     Br  0.61419065  0.97095017  0.09123203     0.00000
C3197       C  0.61804963  0.09497249  0.01546117     0.01400
C3198       C  0.61576880  0.10610312  0.01464121     0.04200
C3199       C  0.61141998  0.11032797  0.00504095    -0.11800
C3200       C  0.60896785  0.10341965  0.99635421     0.23500
C3201       C  0.61139173  0.09234507  0.99709653    -0.12400
C3202       C  0.61610485  0.08817137  0.00653509     0.04900
C3203       C  0.60368461  0.10776853  0.98650571     0.27300
C3204       C  0.59250380  0.10981078  0.98646528    -0.13100
C3205       C  0.58749893  0.11404842  0.97719869     0.05400
C3206       C  0.59353340  0.11570367  0.96769716    -0.09100
C3207       C  0.60472788  0.11348891  0.96771843     0.06300
C3208       C  0.60980719  0.10979040  0.97717213    -0.13400
Br3209     Br  0.60811017  0.08286877  0.98518943    -0.05500
Br3210     Br  0.61797546  0.11553801  0.02681991     0.00100
Br3211     Br  0.57249593  0.11813227  0.97777779     0.00600
Br3212     Br  0.62519039  0.10740950  0.97737649    -0.03800
Br3213     Br  0.62037451  0.07321242  0.00698442     0.00700
Br3214     Br  0.60877230  0.12560446  0.00372631    -0.03100
Br3215     Br  0.58402397  0.10657487  0.99909053    -0.04000
Br3216     Br  0.61312124  0.11479427  0.95468679     0.00000
C3217       C  0.37539997  0.70106319  0.36957304     0.01400
C3218       C  0.37956769  0.69169537  0.36455662     0.04200
C3219       C  0.38605915  0.68449247  0.37042639    -0.11800
C3220       C  0.38832011  0.68650682  0.38134809     0.23500
C3221       C  0.38397165  0.69564075  0.38647065    -0.12400
C3222       C  0.37750954  0.70290316  0.38062893     0.04900
C3223       C  0.39529598  0.67899597  0.38746281     0.27300
C3224       C  0.39064271  0.67049120  0.39332637    -0.13100
C3225       C  0.39724018  0.66327537  0.39905318     0.05400
C3226       C  0.40856058  0.66466968  0.39910222    -0.09100
C3227       C  0.41319535  0.67328082  0.39323737     0.06300
C3228       C  0.40655860  0.68037118  0.38738496    -0.13400
Br3229     Br  0.38718358  0.69828786  0.40147253    -0.05500
Br3230     Br  0.37610071  0.68838630  0.34973519     0.00100
Br3231     Br  0.39065604  0.65117697  0.40629754     0.00600
Br3232     Br  0.41281898  0.69211647  0.37932558    -0.03800
Br3233     Br  0.37216758  0.71560144  0.38780774     0.00700
Br3234     Br  0.39202826  0.67187601  0.36352793    -0.03100
Br3235     Br  0.37516880  0.66878494  0.39345330    -0.04000
Br3236     Br  0.42854862  0.67588422  0.39360417     0.00000
C3237       C  0.60353951  0.61022862  0.33378740     0.01400
C3238       C  0.59854169  0.61303065  0.32395824     0.04200
C3239       C  0.60433400  0.61880373  0.31608690    -0.11800
C3240       C  0.61516075  0.62171670  0.31796535     0.23500
C3241       C  0.62008683  0.61909828  0.32785444    -0.12400
C3242       C  0.61428008  0.61342726  0.33576964     0.04900
C3243       C  0.62147955  0.62733609  0.30948094     0.27300
C3244       C  0.62658309  0.62132278  0.30132907    -0.13100
C3245       C  0.63279903  0.62656235  0.29341194     0.05400
C3246       C  0.63411597  0.63790781  0.29369259    -0.09100
C3247       C  0.62912609  0.64387845  0.30204450     0.06300
C3248       C  0.62269678  0.63861457  0.30978453    -0.13400
Br3249     Br  0.63484511  0.62328210  0.33049882    -0.05500
Br3250     Br  0.58391729  0.60856843  0.32104224     0.00100
Br3251     Br  0.63908972  0.61802360  0.28204301     0.00600
Br3252     Br  0.61556123  0.64679438  0.32093162    -0.03800
Br3253     Br  0.62093738  0.61044975  0.34950715     0.00700
Br3254     Br  0.59750678  0.62270569  0.30267497    -0.03100
Br3255     Br  0.62505177  0.60582276  0.30110626    -0.04000
Br3256     Br  0.63166820  0.65917366  0.30348792     0.00000
C3257       C  0.53530044  0.60091220  0.38959716     0.01400
C3258       C  0.53440218  0.60633544  0.39953217     0.04200
C3259       C  0.52434554  0.61034681  0.40290099    -0.11800
C3260       C  0.51515701  0.60887188  0.39637846     0.23500
C3261       C  0.51603456  0.60337395  0.38648156    -0.12400
C3262       C  0.52608721  0.59933692  0.38312563     0.04900
C3263       C  0.50451725  0.61281000  0.40013228     0.27300
C3264       C  0.49804525  0.60614882  0.40662458    -0.13100
C3265       C  0.48808356  0.60991999  0.41049304     0.05400
C3266       C  0.48466335  0.62053367  0.40812577    -0.09100
C3267       C  0.49113254  0.62715684  0.40147403     0.06300
C3268       C  0.50098948  0.62324361  0.39741693    -0.13400
Br3269     Br  0.50344747  0.60145882  0.37754023    -0.05500
Br3270     Br  0.54698589  0.60840935  0.40843698     0.00100
Br3271     Br  0.47893742  0.60018739  0.41848627     0.00600
Br3272     Br  0.50980663  0.63216555  0.38822357    -0.03800
Br3273     Br  0.52718967  0.59132224  0.36984206     0.00700
Br3274     Br  0.52310570  0.61797756  0.41639880    -0.03100
Br3275     Br  0.50292802  0.59181865  0.41022579    -0.04000
Br3276     Br  0.48689787  0.64179058  0.39830977     0.00000
C3277       C  0.65899763  0.41012524  0.38952986     0.01400
C3278       C  0.65792541  0.40879458  0.37827058     0.04200
C3279       C  0.66559710  0.40273506  0.37249897    -0.11800
C3280       C  0.67442074  0.39808536  0.37791820     0.23500
C3281       C  0.67559245  0.39953072  0.38911403    -0.12400
C3282       C  0.66790401  0.40551816  0.39491791     0.04900
C3283       C  0.68253699  0.39167132  0.37190129     0.27300
C3284       C  0.68154514  0.38038569  0.37130636    -0.13100
C3285       C  0.68959112  0.37420456  0.36622353     0.05400
C3286       C  0.69883194  0.37928665  0.36187177    -0.09100
C3287       C  0.69965012  0.39068110  0.36226686     0.06300
C3288       C  0.69146365  0.39682481  0.36717996    -0.13400
Br3289     Br  0.68783187  0.39331121  0.39644682    -0.05500
Br3290     Br  0.64574600  0.41488379  0.37073903     0.00100
Br3291     Br  0.68750805  0.35883213  0.36476981     0.00600
Br3292     Br  0.69246099  0.41235968  0.36761539    -0.03800
Br3293     Br  0.66992713  0.40781095  0.41017098     0.00700
Br3294     Br  0.66401095  0.40064895  0.35717216    -0.03100
Br3295     Br  0.66907738  0.37344299  0.37750031    -0.04000
Br3296     Br  0.71218011  0.39804357  0.35668083     0.00000
C3297       C  0.61010020  0.48340018  0.39984933     0.01400
C3298       C  0.60988582  0.49219031  0.40710084     0.04200
C3299       C  0.60663114  0.50245729  0.40353949    -0.11800
C3300       C  0.60413940  0.50418167  0.39259760     0.23500
C3301       C  0.60459874  0.49549813  0.38527711    -0.12400
C3302       C  0.60731013  0.48508799  0.38892905     0.04900
C3303       C  0.60104344  0.51515468  0.38886318     0.27300
C3304       C  0.59011980  0.51769620  0.38705623    -0.13100
C3305       C  0.58715253  0.52818182  0.38387955     0.05400
C3306       C  0.59504693  0.53637218  0.38303235    -0.09100
C3307       C  0.60598995  0.53381082  0.38493650     0.06300
C3308       C  0.60898724  0.52317826  0.38756368    -0.13400
Br3309     Br  0.60157523  0.49792981  0.37021539    -0.05500
Br3310     Br  0.61472028  0.49046355  0.42178807     0.00100
Br3311     Br  0.57229414  0.53105943  0.38020913     0.00600
Br3312     Br  0.62400239  0.51956624  0.38953563    -0.03800
Br3313     Br  0.60657937  0.47310233  0.37901639     0.00700
Br3314     Br  0.60549234  0.51422226  0.41368048    -0.03100
Br3315     Br  0.57918349  0.50682935  0.38921775    -0.04000
Br3316     Br  0.61687070  0.54494416  0.38478121     0.00000
C3317       C  0.60027938  0.34551140  0.58360711     0.01400
C3318       C  0.60056303  0.34650566  0.59496933     0.04200
C3319       C  0.60647828  0.33908863  0.60121463    -0.11800
C3320       C  0.61251974  0.33090279  0.59617293     0.23500
C3321       C  0.61247267  0.33003387  0.58485431    -0.12400
C3322       C  0.60618509  0.33712925  0.57860304     0.04900
C3323       C  0.61872840  0.32303729  0.60277017     0.27300
C3324       C  0.62881849  0.32591567  0.60717261    -0.13100
C3325       C  0.63464318  0.31844797  0.61343317     0.05400
C3326       C  0.63053116  0.30797913  0.61510062    -0.09100
C3327       C  0.62056988  0.30502513  0.61047738     0.06300
C3328       C  0.61456895  0.31260814  0.60454608    -0.13400
Br3329     Br  0.62106862  0.31904653  0.57793941    -0.05500
Br3330     Br  0.59337041  0.35832195  0.60210874     0.00100
Br3331     Br  0.64809831  0.32268339  0.62002820     0.00600
Br3332     Br  0.60054222  0.30879158  0.59897051    -0.03800
Br3333     Br  0.60515654  0.33475415  0.56325889     0.00700
Br3334     Br  0.60625369  0.34003016  0.61674436    -0.03100
Br3335     Br  0.63462988  0.34011591  0.60463288    -0.04000
Br3336     Br  0.61543205  0.29040724  0.61170752     0.00000
C3337       C  0.60584634  0.41736407  0.45975224     0.01400
C3338       C  0.61378295  0.41364711  0.46704363     0.04200
C3339       C  0.61073437  0.40935861  0.47708881    -0.11800
C3340       C  0.59979435  0.40908129  0.48008371     0.23500
C3341       C  0.59187829  0.41304603  0.47297030    -0.12400
C3342       C  0.59486658  0.41706403  0.46278340     0.04900
C3343       C  0.59664488  0.40479354  0.49081126     0.27300
C3344       C  0.59459148  0.39369820  0.49215591    -0.13100
C3345       C  0.59148366  0.38967988  0.50230769     0.05400
C3346       C  0.59045722  0.39675049  0.51116139    -0.09100
C3347       C  0.59272744  0.40781328  0.50984309     0.06300
C3348       C  0.59579874  0.41182235  0.49969324    -0.13400
Br3349     Br  0.57692301  0.41293184  0.47725163    -0.05500
Br3350     Br  0.62891786  0.41504694  0.46368635     0.00100
Br3351     Br  0.58823494  0.37456443  0.50396704     0.00600
Br3352     Br  0.59890675  0.42695593  0.49790177    -0.03800
Br3353     Br  0.58380470  0.42167746  0.45285959     0.00700
Br3354     Br  0.62153259  0.40387828  0.48685734    -0.03100
Br3355     Br  0.59601141  0.38406246  0.48002683    -0.04000
Br3356     Br  0.59196824  0.41744118  0.52203992     0.00000
C3357       C  0.35012422  0.60051883  0.59063421     0.01400
C3358       C  0.35196508  0.61135479  0.59369974     0.04200
C3359       C  0.34378934  0.61729334  0.59885774    -0.11800
C3360       C  0.33390004  0.61234317  0.60141428     0.23500
C3361       C  0.33210211  0.60149176  0.59857472    -0.12400
C3362       C  0.34009038  0.59565859  0.59299621     0.04900
C3363       C  0.32544106  0.61857144  0.60716691     0.27300
C3364       C  0.32624617  0.62019448  0.61836963    -0.13100
C3365       C  0.31859023  0.62659472  0.62375872     0.05400
C3366       C  0.30971932  0.63093565  0.61805413    -0.09100
C3367       C  0.30876455  0.62901686  0.60686994     0.06300
C3368       C  0.31675567  0.62308790  0.60141007    -0.13400
Br3369     Br  0.31865694  0.59464898  0.60238758    -0.05500
Br3370     Br  0.36584995  0.61802525  0.59143226     0.00100
Br3371     Br  0.32077101  0.62991957  0.63882280     0.00600
Br3372     Br  0.31592502  0.62123925  0.58598985    -0.03800
Br3373     Br  0.33692277  0.58125126  0.58802657     0.00700
Br3374     Br  0.34605638  0.63229312  0.60240056    -0.03100
Br3375     Br  0.33790090  0.61360853  0.62631081    -0.04000
Br3376     Br  0.29625029  0.63394144  0.59904464     0.00000
C3377       C  0.42513942  0.61951986  0.47372025     0.01400
C3378       C  0.42116206  0.62644632  0.48184490     0.04200
C3379       C  0.41740489  0.62215915  0.49165468    -0.11800
C3380       C  0.41789035  0.61097729  0.49353991     0.23500
C3381       C  0.42186193  0.60404760  0.48546789    -0.12400
C3382       C  0.42534892  0.60827624  0.47553480     0.04900
C3383       C  0.41422491  0.60647769  0.50401507     0.27300
C3384       C  0.42145342  0.60577418  0.51275140    -0.13100
C3385       C  0.41805678  0.60128787  0.52260833     0.05400
C3386       C  0.40740310  0.59744718  0.52376084    -0.09100
C3387       C  0.40016545  0.59819961  0.51499198     0.06300
C3388       C  0.40355308  0.60278555  0.50518949    -0.13400
Br3389     Br  0.42241718  0.58871793  0.48805826    -0.05500
Br3390     Br  0.42132316  0.64187244  0.47982979     0.00100
Br3391     Br  0.42789515  0.60085526  0.53464891     0.00600
Br3392     Br  0.39357767  0.60411245  0.49332394    -0.03800
Br3393     Br  0.42980464  0.59853517  0.46424507     0.00700
Br3394     Br  0.41149228  0.63155513  0.50254994    -0.03100
Br3395     Br  0.43598189  0.61111448  0.51118247    -0.04000
Br3396     Br  0.38572848  0.59248787  0.51614726     0.00000
C3397       C  0.40723361  0.40699317  0.65265914     0.01400
C3398       C  0.41095235  0.40294353  0.66262778     0.04200
C3399       C  0.40395530  0.39704325  0.66937172    -0.11800
C3400       C  0.39314696  0.39529837  0.66630124     0.23500
C3401       C  0.38939138  0.39938482  0.65640336    -0.12400
C3402       C  0.39641119  0.40512208  0.64956018     0.04900
C3403       C  0.38574066  0.38909959  0.67344263     0.27300
C3404       C  0.38401621  0.37801437  0.67162571    -0.13100
C3405       C  0.37710928  0.37211214  0.67843042     0.05400
C3406       C  0.37202132  0.37721183  0.68724751    -0.09100
C3407       C  0.37352945  0.38838992  0.68888580     0.06300
C3408       C  0.38035397  0.39430221  0.68198729    -0.13400
Br3409     Br  0.37457165  0.39703746  0.65224476    -0.05500
Br3410     Br  0.42548906  0.40588341  0.66733219     0.00100
Br3411     Br  0.37416525  0.35714569  0.67526765     0.00600
Br3412     Br  0.38242182  0.40956101  0.68423047    -0.03800
Br3413     Br  0.39123255  0.40988811  0.63569184     0.00700
Br3414     Br  0.40913227  0.39128097  0.68285241    -0.03100
Br3415     Br  0.39118221  0.37092744  0.65978480    -0.04000
Br3416     Br  0.36662330  0.39561773  0.70079267     0.00000
C3417       C  0.52637097  0.39362042  0.57239186     0.01400
C3418       C  0.51700310  0.39278290  0.56596600     0.04200
C3419       C  0.50699647  0.39645303  0.56992894    -0.11800
C3420       C  0.50620305  0.40056679  0.58050277     0.23500
C3421       C  0.51555115  0.40131381  0.58694795    -0.12400
C3422       C  0.52562272  0.39807490  0.58283281     0.04900
C3423       C  0.49561208  0.40419232  0.58490885     0.27300
C3424       C  0.49339287  0.41528083  0.58593225    -0.13100
C3425       C  0.48391379  0.41878018  0.59112204     0.05400
C3426       C  0.47616614  0.41119937  0.59473529    -0.09100
C3427       C  0.47827469  0.40006163  0.59337092     0.06300
C3428       C  0.48803197  0.39659574  0.58864849    -0.13400
Br3429     Br  0.51452961  0.40675187  0.60149582    -0.05500
Br3430     Br  0.51773373  0.38611402  0.55192735     0.00100
Br3431     Br  0.48218845  0.43398573  0.59403159     0.00600
Br3432     Br  0.49110573  0.38138937  0.58734823    -0.03800
Br3433     Br  0.53846809  0.40032400  0.59134009     0.00700
Br3434     Br  0.49437461  0.39596683  0.56084416    -0.03100
Br3435     Br  0.50343691  0.42569330  0.58017267    -0.04000
Br3436     Br  0.46770688  0.38942134  0.59751233     0.00000
C3437       C  0.41937427  0.47718650  0.59962646     0.01400
C3438       C  0.40846555  0.48029216  0.59849458     0.04200
C3439       C  0.40583179  0.49088640  0.59535764    -0.11800
C3440       C  0.41405108  0.49838852  0.59309105     0.23500
C3441       C  0.42493091  0.49531206  0.59412613    -0.12400
C3442       C  0.42760417  0.48478015  0.59744513     0.04900
C3443       C  0.41122455  0.50945625  0.58941358     0.27300
C3444       C  0.41016504  0.51164176  0.57833399    -0.13100
C3445       C  0.40690867  0.52194507  0.57482155     0.05400
C3446       C  0.40507341  0.53029367  0.58239175    -0.09100
C3447       C  0.40660909  0.52816485  0.59348993     0.06300
C3448       C  0.40946044  0.51773520  0.59697735    -0.13400
Br3449     Br  0.43615037  0.50563511  0.59102314    -0.05500
Br3450     Br  0.39705747  0.46991325  0.60058787     0.00100
Br3451     Br  0.40433216  0.52423424  0.55965510     0.00600
Br3452     Br  0.41093988  0.51469682  0.61215242    -0.03800
Br3453     Br  0.44257987  0.48104249  0.59946013     0.00700
Br3454     Br  0.39093190  0.49519718  0.59410968    -0.03100
Br3455     Br  0.41313513  0.50039122  0.56799223    -0.04000
Br3456     Br  0.40547264  0.53961343  0.60398075     0.00000
loop_ 
_geom_bond_atom_site_label_1 
_geom_bond_atom_site_label_2 
_geom_bond_distance 
_geom_bond_site_symmetry_2 
_ccdc_geom_bond_type 
N1            N2   1.321       .  A
N1            C5   1.346       .  A
N1           Cu9   2.077       .  S
N2            C3   1.347       .  A
N2           Cu8   2.081       .  S
C3            C4   1.387       .  A
C3            H6   1.079       .  S
C4            C5   1.386       .  A
C4         C3437   1.488       .  S
C5            H7   1.080       .  S
Cu8          N11   2.082       .  S
Cu9          N19   2.076       .  S
Cu10         N12   2.098       .  S
Cu10         N18   2.098       .  S
N11          N12   1.324       .  A
N11          C15   1.346       .  A
N12          C13   1.350       .  A
C13          C14   1.388       .  A
C13          H16   1.080       .  S
C14          C15   1.385       .  A
C14        C3397   1.489       .  S
C15          H17   1.080       .  S
N18          N19   1.322       .  A
N18          C22   1.350       .  A
N19          C20   1.344       .  A
C20          C21   1.385       .  A
C20          H23   1.081       .  S
C21          C22   1.392       .  A
C21        C3426   1.494       .  S
C22          H24   1.081       .  S
N25          N26   1.322       .  A
N25          C29   1.348       .  A
N25         Cu33   2.087       .  S
N26          C27   1.344       .  A
N26         Cu32   2.069       .  S
C27          C28   1.382       .  A
C27          H30   1.081       .  S
C28          C29   1.387       .  A
C28        C3386   1.483       .  S
C29          H31   1.081       .  S
Cu32         N35   2.068       .  S
Cu33         N43   2.087       .  S
Cu34         N36   2.086       .  S
Cu34         N42   2.086       .  S
N35          N36   1.322       .  A
N35          C39   1.344       .  A
N36          C37   1.348       .  A
C37          C38   1.388       .  A
C37          H40   1.080       .  S
C38          C39   1.383       .  A
C38        C3357   1.485       .  S
C39          H41   1.081       .  S
N42          N43   1.324       .  A
N42          C46   1.347       .  A
N43          C44   1.347       .  A
C44          C45   1.387       .  A
C44          H47   1.080       .  S
C45          C46   1.387       .  A
C45        C3446   1.491       .  S
C46          H48   1.080       .  S
N49          N50   1.323       .  A
N49          C53   1.345       .  A
N49         Cu57   2.077       .  S
N50          C51   1.348       .  A
N50         Cu56   2.085       .  S
C51          C52   1.385       .  A
C51          H54   1.081       .  S
C52          C53   1.382       .  A
C52        C3346   1.480       .  S
C53          H55   1.082       .  S
Cu56         N59   2.085       .  S
Cu57         N67   2.077       .  S
Cu58         N60   2.082       .  S
Cu58         N66   2.082       .  S
N59          N60   1.323       .  A
N59          C63   1.347       .  A
N60          C61   1.346       .  A
C61          C62   1.386       .  A
C61          H64   1.079       .  S
C62          C63   1.387       .  A
C62        C3317   1.490       .  S
C63          H65   1.079       .  S
N66          N67   1.322       .  A
N66          C70   1.346       .  A
N67          C68   1.346       .  A
C68          C69   1.385       .  A
C68          H71   1.082       .  S
C69          C70   1.385       .  A
C69        C3417   1.484       .  S
C70          H72   1.081       .  S
N73          N74   1.323       .  A
N73          C77   1.347       .  A
N73         Cu81   2.082       .  S
N74          C75   1.345       .  A
N74         Cu80   2.077       .  S
C75          C76   1.385       .  A
C75          H78   1.081       .  S
C76          C77   1.386       .  A
C76        C3337   1.485       .  S
C77          H79   1.082       .  S
Cu80         N83   2.077       .  S
Cu81         N91   2.082       .  S
Cu82         N84   2.075       .  S
Cu82         N90   2.075       .  S
N83          N84   1.322       .  A
N83          C87   1.346       .  A
N84          C85   1.345       .  A
C85          C86   1.384       .  A
C85          H88   1.081       .  S
C86          C87   1.385       .  A
C86        C3277   1.481       .  S
C87          H89   1.081       .  S
N90          N91   1.322       .  A
N90          C94   1.346       .  A
N91          C92   1.346       .  A
C92          C93   1.387       .  A
C92          H95   1.079       .  S
C93          C94   1.385       .  A
C93        C3297   1.486       .  S
C94          H96   1.079       .  S
N97          N98   1.322       .  A
N97         C101   1.345       .  A
N97        Cu105   2.076       .  S
N98          C99   1.347       .  A
N98        Cu104   2.081       .  S
C99         C100   1.387       .  A
C99         H102   1.080       .  S
C100        C101   1.385       .  A
C100       C3306   1.486       .  S
C101        H103   1.080       .  S
Cu104       N107   2.081       .  S
Cu105       N115   2.076       .  S
Cu106       N108   2.074       .  S
Cu106       N114   2.073       .  S
N107        N108   1.323       .  A
N107        C111   1.346       .  A
N108        C109   1.346       .  A
C109        C110   1.383       .  A
C109        H112   1.081       .  S
C110        C111   1.384       .  A
C110       C3237   1.481       .  S
C111        H113   1.080       .  S
N114        N115   1.323       .  A
N114        C118   1.344       .  A
N115        C116   1.347       .  A
C116        C117   1.382       .  A
C116        H119   1.082       .  S
C117        C118   1.381       .  A
C117       C3257   1.474       .  S
C118        H120   1.082       .  S
N121        N122   1.322       .  A
N121        C125   1.347       .  A
N121       Cu129   2.081       .  S
N122        C123   1.345       .  A
N122       Cu128   2.072       .  S
C123        C124   1.384       .  A
C123        H126   1.081       .  S
C124        C125   1.386       .  A
C124       C3377   1.484       .  S
C125        H127   1.081       .  S
Cu128       N131   2.072       .  S
Cu129       N139   2.081       .  S
Cu130       N132   2.069       .  S
Cu130       N138   2.069       .  S
N131        N132   1.321       .  A
N131        C135   1.344       .  A
N132        C133   1.345       .  A
C133        C134   1.385       .  A
C133        H136   1.079       .  S
C134        C135   1.384       .  A
C134       C3226   1.482       .  S
C135        H137   1.080       .  S
N138        N139   1.322       .  A
N138        C142   1.345       .  A
N139        C140   1.344       .  A
C140        C141   1.386       .  A
C140        H143   1.082       .  S
C141        C142   1.384       .  A
C141       C3266   1.484       .  S
C142        H144   1.082       .  S
N145        N146   1.322       .  A
N145        C149   1.346       .  A
N145       Cu153   2.081       .  S
N146        C147   1.347       .  A
N146       Cu152   2.077       .  S
C147        C148   1.385       .  A
C147        H150   1.080       .  S
C148        C149   1.385       .  A
C148       C3197   1.484       .  S
C149        H151   1.080       .  S
Cu152       N155   2.077       .  S
Cu153       N163   2.080       .  S
Cu154       N156   2.087       .  S
Cu154       N162   2.086       .  S
N155        N156   1.323       .  A
N155        C159   1.345       .  A
N156        C157   1.348       .  A
C157        C158   1.387       .  A
C157        H160   1.081       .  S
C158        C159   1.384       .  A
C158       C3157   1.486       .  S
C159        H161   1.081       .  S
N162        N163   1.322       .  A
N162        C166   1.347       .  A
N163        C164   1.346       .  A
C164        C165   1.387       .  A
C164        H167   1.081       .  S
C165        C166   1.388       .  A
C165       C3177   1.491       .  S
C166        H168   1.080       .  S
N169        N170   1.324       .  A
N169        C173   1.348       .  A
N169       Cu177   2.087       .  S
N170        C171   1.347       .  A
N170       Cu176   2.089       .  S
C171        C172   1.387       .  A
C171        H174   1.081       .  S
C172        C173   1.386       .  A
C172       C3137   1.489       .  S
C173        H175   1.081       .  S
Cu176       N179   2.089       .  S
Cu177       N187   2.087       .  S
Cu178       N180   2.073       .  S
Cu178       N186   2.072       .  S
N179        N180   1.322       .  A
N179        C183   1.348       .  A
N180        C181   1.345       .  A
C181        C182   1.384       .  A
C181        H184   1.080       .  S
C182        C183   1.388       .  A
C182       C3117   1.487       .  S
C183        H185   1.080       .  S
N186        N187   1.322       .  A
N186        C190   1.345       .  A
N187        C188   1.348       .  A
C188        C189   1.387       .  A
C188        H191   1.081       .  S
C189        C190   1.384       .  A
C189       C3206   1.486       .  S
C190        H192   1.080       .  S
N193        N194   1.323       .  A
N193        C197   1.346       .  A
N193       Cu201   2.075       .  S
N194        C195   1.349       .  A
N194       Cu200   2.093       .  S
C195        C196   1.388       .  A
C195        H198   1.081       .  S
C196        C197   1.383       .  A
C196       C3146   1.487       .  S
C197        H199   1.081       .  S
Cu200       N203   2.094       .  S
Cu201       N211   2.074       .  S
Cu202       N204   2.088       .  S
Cu202       N210   2.087       .  S
N203        N204   1.324       .  A
N203        C207   1.348       .  A
N204        C205   1.348       .  A
C205        C206   1.386       .  A
C205        H208   1.080       .  S
C206        C207   1.388       .  A
C206       C3086   1.491       .  S
C207        H209   1.080       .  S
N210        N211   1.322       .  A
N210        C214   1.347       .  A
N211        C212   1.345       .  A
C212        C213   1.386       .  A
C212        H215   1.081       .  S
C213        C214   1.389       .  A
C213       C3097   1.491       .  S
C214        H216   1.081       .  S
N217        N218   1.322       .  A
N217        C221   1.348       .  A
N217       Cu225   2.085       .  S
N218        C219   1.345       .  A
N218       Cu224   2.072       .  S
C219        C220   1.383       .  A
C219        H222   1.081       .  S
C220        C221   1.387       .  A
C220       C3057   1.484       .  S
C221        H223   1.082       .  S
Cu224       N227   2.071       .  S
Cu225       N235   2.085       .  S
Cu226       N228   2.078       .  S
Cu226       N234   2.079       .  S
N227        N228   1.321       .  A
N227        C231   1.344       .  A
N228        C229   1.347       .  A
C229        C230   1.387       .  A
C229        H232   1.080       .  S
C230        C231   1.384       .  A
C230       C3037   1.484       .  S
C231        H233   1.080       .  S
N234        N235   1.323       .  A
N234        C238   1.346       .  A
N235        C236   1.347       .  A
C236        C237   1.385       .  A
C236        H239   1.081       .  S
C237        C238   1.385       .  A
C237       C3186   1.485       .  S
C238        H240   1.081       .  S
N241        N242   1.323       .  A
N241        C245   1.347       .  A
N241       Cu249   2.084       .  S
N242        C243   1.347       .  A
N242       Cu248   2.086       .  S
C243        C244   1.387       .  A
C243        H246   1.080       .  S
C244        C245   1.387       .  A
C244       C3017   1.490       .  S
C245        H247   1.081       .  S
Cu248       N251   2.085       .  S
Cu249       N259   2.084       .  S
Cu250       N252   2.077       .  S
Cu250       N258   2.077       .  S
N251        N252   1.322       .  A
N251        C255   1.347       .  A
N252        C253   1.346       .  A
C253        C254   1.386       .  A
C253        H256   1.080       .  S
C254        C255   1.388       .  A
C254       C3006   1.489       .  S
C255        H257   1.080       .  S
N258        N259   1.323       .  A
N258        C262   1.345       .  A
N259        C260   1.348       .  A
C260        C261   1.386       .  A
C260        H263   1.081       .  S
C261        C262   1.384       .  A
C261       C3066   1.485       .  S
C262        H264   1.081       .  S
N265        N266   1.324       .  A
N265        C269   1.346       .  A
N265       Cu273   2.082       .  S
N266        C267   1.348       .  A
N266       Cu272   2.082       .  S
C267        C268   1.384       .  A
C267        H270   1.081       .  S
C268        C269   1.383       .  A
C268       C3026   1.481       .  S
C269        H271   1.081       .  S
Cu272       N275   2.081       .  S
Cu273       N283   2.082       .  S
Cu274       N276   2.070       .  S
Cu274       N282   2.070       .  S
N275        N276   1.322       .  A
N275        C279   1.346       .  A
N276        C277   1.343       .  A
C277        C278   1.384       .  A
C277        H280   1.081       .  S
C278        C279   1.388       .  A
C278       C2977   1.487       .  S
C279        H281   1.082       .  S
N282        N283   1.321       .  A
N282        C286   1.346       .  A
N283        C284   1.346       .  A
C284        C285   1.387       .  A
C284        H287   1.082       .  S
C285        C286   1.385       .  A
C285       C3106   1.486       .  S
C286        H288   1.081       .  S
N289        N290   1.325       .  A
N289        C293   1.348       .  A
N289       Cu297   2.095       .  S
N290        C291   1.346       .  A
N290       Cu296   2.079       .  S
C291        C292   1.381       .  A
C291        H294   1.082       .  S
C292        C293   1.385       .  A
C292       C2957   1.481       .  S
C293        H295   1.082       .  S
Cu296       N299   2.078       .  S
Cu297       N307   2.095       .  S
Cu298       N300   2.074       .  S
Cu298       N306   2.074       .  S
N299        N300   1.320       .  A
N299        C303   1.346       .  A
N300        C301   1.345       .  A
C301        C302   1.387       .  A
C301        H304   1.081       .  S
C302        C303   1.388       .  A
C302       C2917   1.490       .  S
C303        H305   1.080       .  S
N306        N307   1.322       .  A
N306        C310   1.344       .  A
N307        C308   1.350       .  A
C308        C309   1.391       .  A
C308        H311   1.081       .  S
C309        C310   1.384       .  A
C309       C2937   1.493       .  S
C310        H312   1.081       .  S
N313        N314   1.324       .  A
N313        C317   1.348       .  A
N313       Cu321   2.088       .  S
N314        C315   1.348       .  A
N314       Cu320   2.091       .  S
C315        C316   1.384       .  A
C315        H318   1.082       .  S
C316        C317   1.384       .  A
C316       C2946   1.483       .  S
C317        H319   1.082       .  S
Cu320       N323   2.090       .  S
Cu321       N331   2.087       .  S
Cu322       N324   2.078       .  S
Cu322       N330   2.078       .  S
N323        N324   1.322       .  A
N323        C327   1.349       .  A
N324        C325   1.345       .  A
C325        C326   1.385       .  A
C325        H328   1.080       .  S
C326        C327   1.389       .  A
C326       C2877   1.490       .  S
C327        H329   1.079       .  S
N330        N331   1.322       .  A
N330        C334   1.346       .  A
N331        C332   1.347       .  A
C332        C333   1.388       .  A
C332        H335   1.081       .  S
C333        C334   1.386       .  A
C333       C2906   1.489       .  S
C334        H336   1.081       .  S
N337        N338   1.323       .  A
N337        C341   1.346       .  A
N337       Cu345   2.086       .  S
N338        C339   1.348       .  A
N338       Cu344   2.079       .  S
C339        C340   1.385       .  A
C339        H342   1.082       .  S
C340        C341   1.385       .  A
C340       C2857   1.485       .  S
C341        H343   1.082       .  S
Cu344       N347   2.079       .  S
Cu345       N355   2.086       .  S
Cu346       N348   2.078       .  S
Cu346       N354   2.078       .  S
N347        N348   1.323       .  A
N347        C351   1.345       .  A
N348        C349   1.346       .  A
C349        C350   1.385       .  A
C349        H352   1.080       .  S
C350        C351   1.385       .  A
C350       C2837   1.483       .  S
C351        H353   1.080       .  S
N354        N355   1.323       .  A
N354        C358   1.346       .  A
N355        C356   1.348       .  A
C356        C357   1.385       .  A
C356        H359   1.080       .  S
C357        C358   1.383       .  A
C357       C2897   1.481       .  S
C358        H360   1.081       .  S
N361        N362   1.324       .  A
N361        C365   1.346       .  A
N361       Cu369   2.082       .  S
N362        C363   1.348       .  A
N362       Cu368   2.083       .  S
C363        C364   1.384       .  A
C363        H366   1.081       .  S
C364        C365   1.383       .  A
C364       C2817   1.481       .  S
C365        H367   1.081       .  S
Cu368       N371   2.083       .  S
Cu369       N379   2.082       .  S
Cu370       N372   2.073       .  S
Cu370       N378   2.073       .  S
N371        N372   1.322       .  A
N371        C375   1.347       .  A
N372        C373   1.345       .  A
C373        C374   1.384       .  A
C373        H376   1.080       .  S
C374        C375   1.386       .  A
C374       C2797   1.484       .  S
C375        H377   1.080       .  S
N378        N379   1.322       .  A
N378        C382   1.345       .  A
N379        C380   1.347       .  A
C380        C381   1.385       .  A
C380        H383   1.082       .  S
C381        C382   1.382       .  A
C381       C2966   1.481       .  S
C382        H384   1.082       .  S
N385        N386   1.323       .  A
N385        C389   1.345       .  A
N385       Cu393   2.080       .  S
N386        C387   1.347       .  A
N386       Cu392   2.084       .  S
C387        C388   1.387       .  A
C387        H390   1.081       .  S
C388        C389   1.385       .  A
C388       C2826   1.488       .  S
C389        H391   1.082       .  S
Cu392       N395   2.084       .  S
Cu393       N403   2.080       .  S
Cu394       N396   2.076       .  S
Cu394       N402   2.076       .  S
N395        N396   1.323       .  A
N395        C399   1.347       .  A
N396        C397   1.346       .  A
C397        C398   1.383       .  A
C397        H400   1.080       .  S
C398        C399   1.385       .  A
C398       C2757   1.482       .  S
C399        H401   1.081       .  S
N402        N403   1.322       .  A
N402        C406   1.345       .  A
N403        C404   1.347       .  A
C404        C405   1.387       .  A
C404        H407   1.080       .  S
C405        C406   1.386       .  A
C405       C2786   1.487       .  S
C406        H408   1.080       .  S
N409        N410   1.323       .  A
N409        C413   1.348       .  A
N409       Cu417   2.086       .  S
N410        C411   1.346       .  A
N410       Cu416   2.082       .  S
C411        C412   1.385       .  A
C411        H414   1.081       .  S
C412        C413   1.386       .  A
C412       C2866   1.486       .  S
C413        H415   1.082       .  S
Cu416       N419   2.082       .  S
Cu417       N427   2.086       .  S
Cu418       N420   2.082       .  S
Cu418       N426   2.082       .  S
N419        N420   1.322       .  A
N419        C423   1.347       .  A
N420        C421   1.346       .  A
C421        C422   1.388       .  A
C421        H424   1.082       .  S
C422        C423   1.388       .  A
C422       C2737   1.491       .  S
C423        H425   1.081       .  S
N426        N427   1.323       .  A
N426        C430   1.346       .  A
N427        C428   1.347       .  A
C428        C429   1.387       .  A
C428        H431   1.081       .  S
C429        C430   1.387       .  A
C429       C2777   1.490       .  S
C430        H432   1.081       .  S
N433        N434   1.321       .  A
N433        C437   1.345       .  A
N433       Cu441   2.072       .  S
N434        C435   1.345       .  A
N434       Cu440   2.073       .  S
C435        C436   1.386       .  A
C435        H438   1.082       .  S
C436        C437   1.385       .  A
C436       C2697   1.485       .  S
C437        H439   1.082       .  S
Cu440       N443   2.072       .  S
Cu441       N451   2.072       .  S
Cu442       N444   2.075       .  S
Cu442       N450   2.075       .  S
N443        N444   1.323       .  A
N443        C447   1.344       .  A
N444        C445   1.346       .  A
C445        C446   1.384       .  A
C445        H448   1.080       .  S
C446        C447   1.383       .  A
C446       C2677   1.478       .  S
C447        H449   1.080       .  S
N450        N451   1.323       .  A
N450        C454   1.346       .  A
N451        C452   1.344       .  A
C452        C453   1.381       .  A
C452        H455   1.082       .  S
C453        C454   1.383       .  A
C453       C2726   1.476       .  S
C454        H456   1.082       .  S
N457        N458   1.323       .  A
N457        C461   1.346       .  A
N457       Cu465   2.078       .  S
N458        C459   1.346       .  A
N458       Cu464   2.075       .  S
C459        C460   1.382       .  A
C459        H462   1.082       .  S
C460        C461   1.384       .  A
C460       C2666   1.479       .  S
C461        H463   1.081       .  S
Cu464       N467   2.075       .  S
Cu465       N475   2.078       .  S
Cu466       N468   2.074       .  S
Cu466       N474   2.074       .  S
N467        N468   1.322       .  A
N467        C471   1.346       .  A
N468        C469   1.345       .  A
C469        C470   1.383       .  A
C469        H472   1.079       .  S
C470        C471   1.384       .  A
C470       C2646   1.480       .  S
C471        H473   1.079       .  S
N474        N475   1.323       .  A
N474        C478   1.345       .  A
N475        C476   1.346       .  A
C476        C477   1.383       .  A
C476        H479   1.082       .  S
C477        C478   1.383       .  A
C477       C2717   1.479       .  S
C478        H480   1.082       .  S
N481        N482   1.323       .  A
N481        C485   1.345       .  A
N481       Cu489   2.076       .  S
N482        C483   1.347       .  A
N482       Cu488   2.087       .  S
C483        C484   1.387       .  A
C483        H486   1.080       .  S
C484        C485   1.384       .  A
C484       C2657   1.486       .  S
C485        H487   1.081       .  S
Cu488       N491   2.087       .  S
Cu489       N499   2.076       .  S
Cu490       N492   2.084       .  S
Cu490       N498   2.083       .  S
N491        N492   1.323       .  A
N491        C495   1.348       .  A
N492        C493   1.347       .  A
C493        C494   1.385       .  A
C493        H496   1.080       .  S
C494        C495   1.386       .  A
C494       C2597   1.485       .  S
C495        H497   1.081       .  S
N498        N499   1.322       .  A
N498        C502   1.346       .  A
N499        C500   1.346       .  A
C500        C501   1.386       .  A
C500        H503   1.080       .  S
C501        C502   1.387       .  A
C501       C2617   1.487       .  S
C502        H504   1.080       .  S
N505        N506   1.322       .  A
N505        C509   1.346       .  A
N505       Cu513   2.074       .  S
N506        C507   1.346       .  A
N506       Cu512   2.077       .  S
C507        C508   1.385       .  A
C507        H510   1.080       .  S
C508        C509   1.384       .  A
C508       C2706   1.481       .  S
C509        H511   1.082       .  S
Cu512       N515   2.077       .  S
Cu513       N523   2.075       .  S
Cu514       N516   2.088       .  S
Cu514       N522   2.089       .  S
N515        N516   1.321       .  A
N515        C519   1.344       .  A
N516        C517   1.347       .  A
C517        C518   1.392       .  A
C517        H520   1.080       .  S
C518        C519   1.388       .  A
C518       C2557   1.498       .  S
C519        H521   1.081       .  S
N522        N523   1.323       .  A
N522        C526   1.348       .  A
N523        C524   1.345       .  A
C524        C525   1.383       .  A
C524        H527   1.081       .  S
C525        C526   1.386       .  A
C525       C2577   1.483       .  S
C526        H528   1.081       .  S
N529        N530   1.322       .  A
N529        C533   1.346       .  A
N529       Cu537   2.082       .  S
N530        C531   1.347       .  A
N530       Cu536   2.082       .  S
C531        C532   1.387       .  A
C531        H534   1.081       .  S
C532        C533   1.386       .  A
C532       C2537   1.488       .  S
C533        H535   1.081       .  S
Cu536       N539   2.082       .  S
Cu537       N547   2.082       .  S
Cu538       N540   2.077       .  S
Cu538       N546   2.078       .  S
N539        N540   1.322       .  A
N539        C543   1.346       .  A
N540        C541   1.346       .  A
C541        C542   1.387       .  A
C541        H544   1.082       .  S
C542        C543   1.388       .  A
C542       C2517   1.491       .  S
C543        H545   1.081       .  S
N546        N547   1.323       .  A
N546        C550   1.345       .  A
N547        C548   1.347       .  A
C548        C549   1.386       .  A
C548        H551   1.082       .  S
C549        C550   1.384       .  A
C549       C2586   1.485       .  S
C550        H552   1.081       .  S
N553        N554   1.324       .  A
N553        C557   1.347       .  A
N553       Cu561   2.085       .  S
N554        C555   1.347       .  A
N554       Cu560   2.085       .  S
C555        C556   1.384       .  A
C555        H558   1.080       .  S
C556        C557   1.384       .  A
C556       C2546   1.482       .  S
C557        H559   1.080       .  S
Cu560       N563   2.084       .  S
Cu561       N571   2.085       .  S
Cu562       N564   2.070       .  S
Cu562       N570   2.070       .  S
N563        N564   1.322       .  A
N563        C567   1.348       .  A
N564        C565   1.344       .  A
C565        C566   1.383       .  A
C565        H568   1.080       .  S
C566        C567   1.387       .  A
C566       C2497   1.483       .  S
C567        H569   1.080       .  S
N570        N571   1.321       .  A
N570        C574   1.345       .  A
N571        C572   1.347       .  A
C572        C573   1.388       .  A
C572        H575   1.080       .  S
C573        C574   1.385       .  A
C573       C2626   1.488       .  S
C574        H576   1.080       .  S
C577        N578   1.360       .  A
C577        N582   1.362       .  A
C577       C2457   1.494       .  S
N578        C579   1.358       .  A
C579        N580   1.356       .  A
C579       C2806   1.483       .  S
N580        C581   1.357       .  A
C581        N582   1.361       .  A
C581       C2477   1.480       .  S
N583        N584   1.322       .  A
N583        C587   1.347       .  A
N583       Cu591   2.084       .  S
N584        C585   1.347       .  A
N584       Cu590   2.082       .  S
C585        C586   1.387       .  A
C585        H588   1.081       .  S
C586        C587   1.388       .  A
C586       C2466   1.491       .  S
C587        H589   1.080       .  S
Cu590       N593   2.083       .  S
Cu591       N601   2.084       .  S
Cu592       N594   2.091       .  S
Cu592       N600   2.091       .  S
N593        N594   1.324       .  A
N593        C597   1.348       .  A
N594        C595   1.347       .  A
C595        C596   1.385       .  A
C595        H598   1.082       .  S
C596        C597   1.384       .  A
C596       C2437   1.485       .  S
C597        H599   1.081       .  S
N600        N601   1.323       .  A
N600        C604   1.350       .  A
N601        C602   1.346       .  A
C602        C603   1.385       .  A
C602        H605   1.083       .  S
C603        C604   1.388       .  A
C603       C2417   1.489       .  S
C604        H606   1.082       .  S
C607        N608   1.360       .  A
C607        N612   1.361       .  A
C607       C2446   1.480       .  S
N608        C609   1.358       .  A
C609        N610   1.357       .  A
C609       C2506   1.488       .  S
N610        C611   1.358       .  A
C611        N612   1.362       .  A
C611       C2397   1.485       .  S
C613        N614   1.359       .  A
C613        N618   1.359       .  A
C613       C2377   1.475       .  S
N614        C615   1.359       .  A
C615        N616   1.360       .  A
C615       C3246   1.490       .  S
N616        C617   1.360       .  A
C617        N618   1.359       .  A
C617       C2357   1.481       .  S
C619        N620   1.356       .  A
C619        N624   1.363       .  A
C619       C2326   1.475       .  S
N620        C621   1.355       .  A
C621        N622   1.355       .  A
C621       C3046   1.480       .  S
N622        C623   1.356       .  A
C623        N624   1.363       .  A
C623       C2337   1.476       .  S
N625        N626   1.323       .  A
N625        C629   1.346       .  A
N625       Cu633   2.084       .  S
N626        C627   1.349       .  A
N626       Cu632   2.092       .  S
C627        C628   1.389       .  A
C627        H630   1.079       .  S
C628        C629   1.386       .  A
C628       C2317   1.492       .  S
C629        H631   1.079       .  S
Cu632       N635   2.092       .  S
Cu633       N643   2.084       .  S
Cu634       N636   2.078       .  S
Cu634       N642   2.078       .  S
N635        N636   1.324       .  A
N635        C639   1.349       .  A
N636        C637   1.346       .  A
C637        C638   1.382       .  A
C637        H640   1.082       .  S
C638        C639   1.386       .  A
C638       C2366   1.483       .  S
C639        H641   1.082       .  S
N642        N643   1.322       .  A
N642        C646   1.347       .  A
N643        C644   1.347       .  A
C644        C645   1.385       .  A
C644        H647   1.082       .  S
C645        C646   1.384       .  A
C645       C2297   1.483       .  S
C646        H648   1.082       .  S
N649        N650   1.321       .  A
N649        C653   1.348       .  A
N649       Cu657   2.087       .  S
N650        C651   1.342       .  A
N650       Cu656   2.066       .  S
C651        C652   1.384       .  A
C651        H654   1.081       .  S
C652        C653   1.390       .  A
C652       C2406   1.488       .  S
C653        H655   1.081       .  S
Cu656       N659   2.066       .  S
Cu657       N667   2.086       .  S
Cu658       N660   2.077       .  S
Cu658       N666   2.078       .  S
N659        N660   1.321       .  A
N659        C663   1.344       .  A
N660        C661   1.347       .  A
C661        C662   1.385       .  A
C661        H664   1.082       .  S
C662        C663   1.382       .  A
C662       C2346   1.479       .  S
C663        H665   1.081       .  S
N666        N667   1.323       .  A
N666        C670   1.345       .  A
N667        C668   1.345       .  A
C668        C669   1.388       .  A
C668        H671   1.083       .  S
C669        C670   1.387       .  A
C669       C2286   1.492       .  S
C670        H672   1.082       .  S
N673        N674   1.323       .  A
N673        C677   1.346       .  A
N673       Cu681   2.081       .  S
N674        C675   1.346       .  A
N674       Cu680   2.077       .  S
C675        C676   1.384       .  A
C675        H678   1.081       .  S
C676        C677   1.385       .  A
C676       C2386   1.484       .  S
C677        H679   1.081       .  S
Cu680       N683   2.077       .  S
Cu681       N691   2.081       .  S
Cu682       N684   2.083       .  S
Cu682       N690   2.083       .  S
N683        N684   1.323       .  A
N683        C687   1.346       .  A
N684        C685   1.346       .  A
C685        C686   1.385       .  A
C685        H688   1.081       .  S
C686        C687   1.384       .  A
C686       C2486   1.483       .  S
C687        H689   1.081       .  S
N690        N691   1.323       .  A
N690        C694   1.346       .  A
N691        C692   1.347       .  A
C692        C693   1.384       .  A
C692        H695   1.082       .  S
C693        C694   1.384       .  A
C693       C2266   1.482       .  S
C694        H696   1.082       .  S
C697        N698   1.360       .  A
C697        N702   1.359       .  A
C697       C2217   1.480       .  S
N698        C699   1.362       .  A
C699        N700   1.362       .  A
C699       C2237   1.493       .  S
N700        C701   1.359       .  A
C701        N702   1.357       .  A
C701       C2526   1.479       .  S
C703        N704   1.359       .  A
C703        N708   1.359       .  A
C703       C2197   1.485       .  S
N704        C705   1.358       .  A
C705        N706   1.359       .  A
C705       C2177   1.482       .  S
N706        C707   1.359       .  A
C707        N708   1.358       .  A
C707       C3166   1.489       .  S
C709        N710   1.362       .  A
C709        N714   1.360       .  A
C709       C2166   1.484       .  S
N710        C711   1.361       .  A
C711        N712   1.356       .  A
C711       C2137   1.473       .  S
N712        C713   1.356       .  A
C713        N714   1.360       .  A
C713       C3286   1.487       .  S
C715        N716   1.358       .  A
C715        N720   1.360       .  A
C715       C2117   1.475       .  S
N716        C717   1.357       .  A
C717        N718   1.357       .  A
C717       C2766   1.485       .  S
N718        C719   1.357       .  A
C719        N720   1.359       .  A
C719       C2097   1.471       .  S
N721        N722   1.323       .  A
N721        C725   1.346       .  A
N721       Cu729   2.080       .  S
N722        C723   1.346       .  A
N722       Cu728   2.074       .  S
C723        C724   1.384       .  A
C723        H726   1.080       .  S
C724        C725   1.385       .  A
C724       C2146   1.482       .  S
C725        H727   1.079       .  S
Cu728       N731   2.074       .  S
Cu729       N739   2.080       .  S
Cu730       N732   2.074       .  S
Cu730       N738   2.074       .  S
N731        N732   1.322       .  A
N731        C735   1.345       .  A
N732        C733   1.346       .  A
C733        C734   1.383       .  A
C733        H736   1.082       .  S
C734        C735   1.383       .  A
C734       C2126   1.478       .  S
C735        H737   1.082       .  S
N738        N739   1.323       .  A
N738        C742   1.345       .  A
N739        C740   1.347       .  A
C740        C741   1.384       .  A
C740        H743   1.082       .  S
C741        C742   1.382       .  A
C741       C2257   1.480       .  S
C742        H744   1.082       .  S
N745        N746   1.322       .  A
N745        C749   1.345       .  A
N745       Cu753   2.076       .  S
N746        C747   1.346       .  A
N746       Cu752   2.074       .  S
C747        C748   1.384       .  A
C747        H750   1.080       .  S
C748        C749   1.384       .  A
C748       C2106   1.481       .  S
C749        H751   1.081       .  S
Cu752       N755   2.074       .  S
Cu753       N763   2.076       .  S
Cu754       N756   2.076       .  S
Cu754       N762   2.076       .  S
N755        N756   1.322       .  A
N755        C759   1.345       .  A
N756        C757   1.346       .  A
C757        C758   1.386       .  A
C757        H760   1.080       .  S
C758        C759   1.385       .  A
C758       C2206   1.485       .  S
C759        H761   1.081       .  S
N762        N763   1.323       .  A
N762        C766   1.345       .  A
N763        C764   1.346       .  A
C764        C765   1.384       .  A
C764        H767   1.082       .  S
C765        C766   1.383       .  A
C765       C2086   1.481       .  S
C766        H768   1.082       .  S
N769        N770   1.323       .  A
N769        C773   1.346       .  A
N769       Cu777   2.078       .  S
N770        C771   1.347       .  A
N770       Cu776   2.082       .  S
C771        C772   1.385       .  A
C771        H774   1.080       .  S
C772        C773   1.383       .  A
C772       C2186   1.482       .  S
C773        H775   1.081       .  S
Cu776       N779   2.082       .  S
Cu777       N787   2.078       .  S
Cu778       N780   2.074       .  S
Cu778       N786   2.073       .  S
N779        N780   1.322       .  A
N779        C783   1.347       .  A
N780        C781   1.345       .  A
C781        C782   1.383       .  A
C781        H784   1.082       .  S
C782        C783   1.386       .  A
C782       C2226   1.483       .  S
C783        H785   1.081       .  S
N786        N787   1.322       .  A
N786        C790   1.345       .  A
N787        C788   1.346       .  A
C788        C789   1.386       .  A
C788        H791   1.083       .  S
C789        C790   1.384       .  A
C789       C2277   1.484       .  S
C790        H792   1.083       .  S
N793        N794   1.322       .  A
N793        C797   1.347       .  A
N793       Cu801   2.084       .  S
N794        C795   1.346       .  A
N794       Cu800   2.084       .  S
C795        C796   1.388       .  A
C795        H798   1.081       .  S
C796        C797   1.388       .  A
C796       C2246   1.493       .  S
C797        H799   1.081       .  S
Cu800       N803   2.084       .  S
Cu801       N811   2.084       .  S
Cu802       N804   2.080       .  S
Cu802       N810   2.080       .  S
N803        N804   1.322       .  A
N803        C807   1.348       .  A
N804        C805   1.347       .  A
C805        C806   1.384       .  A
C805        H808   1.081       .  S
C806        C807   1.386       .  A
C806       C2157   1.484       .  S
C807        H809   1.079       .  S
N810        N811   1.322       .  A
N810        C814   1.345       .  A
N811        C812   1.346       .  A
C812        C813   1.388       .  A
C812        H815   1.083       .  S
C813        C814   1.387       .  A
C813       C2057   1.491       .  S
C814        H816   1.083       .  S
C817        N818   1.362       .  A
C817        N822   1.361       .  A
C817       C2037   1.485       .  S
N818        C819   1.361       .  A
C819        N820   1.360       .  A
C819       C2017   1.480       .  S
N820        C821   1.359       .  A
C821        N822   1.360       .  A
C821       C3126   1.485       .  S
C823        N824   1.359       .  A
C823        N828   1.364       .  A
C823       C2006   1.501       .  S
N824        C825   1.356       .  A
C825        N826   1.357       .  A
C825       C2746   1.475       .  S
N826        C827   1.359       .  A
C827        N828   1.363       .  A
C827       C1977   1.481       .  S
N829        N830   1.323       .  A
N829        C833   1.346       .  A
N829       Cu837   2.076       .  S
N830        C831   1.349       .  A
N830       Cu836   2.098       .  S
C831        C832   1.390       .  A
C831        H834   1.080       .  S
C832        C833   1.385       .  A
C832       C2026   1.491       .  S
C833        H835   1.080       .  S
Cu836       N839   2.099       .  S
Cu837       N847   2.075       .  S
Cu838       N840   2.081       .  S
Cu838       N846   2.080       .  S
N839        N840   1.323       .  A
N839        C843   1.350       .  A
N840        C841   1.346       .  A
C841        C842   1.385       .  A
C841        H844   1.080       .  S
C842        C843   1.390       .  A
C842       C1986   1.493       .  S
C843        H845   1.079       .  S
N846        N847   1.323       .  A
N846        C850   1.347       .  A
N847        C848   1.346       .  A
C848        C849   1.381       .  A
C848        H851   1.082       .  S
C849        C850   1.383       .  A
C849       C2077   1.476       .  S
C850        H852   1.082       .  S
C853        N854   1.359       .  A
C853        N858   1.358       .  A
C853       C1957   1.472       .  S
N854        C855   1.359       .  A
C855        N856   1.358       .  A
C855       C3326   1.478       .  S
N856        C857   1.360       .  A
C857        N858   1.358       .  A
C857       C1937   1.482       .  S
C859        N860   1.361       .  A
C859        N864   1.359       .  A
C859       C1917   1.484       .  S
N860        C861   1.362       .  A
C861        N862   1.362       .  A
C861       C1897   1.489       .  S
N862        C863   1.360       .  A
C863        N864   1.357       .  A
C863       C2566   1.477       .  S
N865        N866   1.324       .  A
N865        C869   1.349       .  A
N865       Cu873   2.100       .  S
N866        C867   1.348       .  A
N866       Cu872   2.082       .  S
C867        C868   1.384       .  A
C867        H870   1.080       .  S
C868        C869   1.388       .  A
C868       C1906   1.489       .  S
C869        H871   1.081       .  S
Cu872       N875   2.081       .  S
Cu873       N883   2.100       .  S
Cu874       N876   2.066       .  S
Cu874       N882   2.066       .  S
N875        N876   1.322       .  A
N875        C879   1.347       .  A
N876        C877   1.344       .  A
C877        C878   1.380       .  A
C877        H880   1.081       .  S
C878        C879   1.385       .  A
C878       C1946   1.476       .  S
C879        H881   1.080       .  S
N882        N883   1.321       .  A
N882        C886   1.344       .  A
N883        C884   1.348       .  A
C884        C885   1.393       .  A
C884        H887   1.083       .  S
C885        C886   1.385       .  A
C885       C2066   1.495       .  S
C886        H888   1.083       .  S
N889        N890   1.321       .  A
N889        C893   1.347       .  A
N889       Cu897   2.085       .  S
N890        C891   1.345       .  A
N890       Cu896   2.079       .  S
C891        C892   1.388       .  A
C891        H894   1.081       .  S
C892        C893   1.391       .  A
C892       C1926   1.497       .  S
C893        H895   1.080       .  S
Cu896       N899   2.080       .  S
Cu897       N907   2.086       .  S
Cu898       N900   2.074       .  S
Cu898       N906   2.075       .  S
N899        N900   1.321       .  A
N899        C903   1.347       .  A
N900        C901   1.345       .  A
C901        C902   1.386       .  A
C901        H904   1.081       .  S
C902        C903   1.387       .  A
C902       C1997   1.488       .  S
C903        H905   1.082       .  S
N906        N907   1.324       .  A
N906        C910   1.346       .  A
N907        C908   1.347       .  A
C908        C909   1.384       .  A
C908        H911   1.082       .  S
C909        C910   1.382       .  A
C909       C1877   1.479       .  S
C910        H912   1.082       .  S
N913        N914   1.322       .  A
N913        C917   1.343       .  A
N913       Cu921   2.073       .  S
N914        C915   1.347       .  A
N914       Cu920   2.077       .  S
C915        C916   1.386       .  A
C915        H918   1.080       .  S
C916        C917   1.383       .  A
C916       C1966   1.482       .  S
C917        H919   1.080       .  S
Cu920       N923   2.078       .  S
Cu921       N931   2.073       .  S
Cu922       N924   2.086       .  S
Cu922       N930   2.085       .  S
N923        N924   1.324       .  A
N923        C927   1.347       .  A
N924        C925   1.347       .  A
C925        C926   1.384       .  A
C925        H928   1.081       .  S
C926        C927   1.383       .  A
C926       C2046   1.481       .  S
C927        H929   1.079       .  S
N930        N931   1.321       .  A
N930        C934   1.345       .  A
N931        C932   1.347       .  A
C932        C933   1.388       .  A
C932        H935   1.082       .  S
C933        C934   1.389       .  A
C933       C1866   1.494       .  S
C934        H936   1.082       .  S
C937        N938   1.362       .  A
C937        N942   1.359       .  A
C937       C1817   1.484       .  S
N938        C939   1.362       .  A
C939        N940   1.357       .  A
C939       C1837   1.488       .  S
N940        C941   1.355       .  A
C941        N942   1.357       .  A
C941       C2846   1.479       .  S
C943        N944   1.356       .  A
C943        N948   1.357       .  A
C943       C1786   1.469       .  S
N944        C945   1.357       .  A
C945        N946   1.358       .  A
C945       C2686   1.481       .  S
N946        C947   1.359       .  A
C947        N948   1.359       .  A
C947       C1806   1.480       .  S
C949        N950   1.359       .  A
C949        N954   1.359       .  A
C949       C1746   1.482       .  S
N950        C951   1.359       .  A
C951        N952   1.362       .  A
C951       C3077   1.499       .  S
N952        C953   1.363       .  A
C953        N954   1.360       .  A
C953       C1766   1.504       .  S
C955        N956   1.360       .  A
C955        N960   1.364       .  A
C955       C1717   1.480       .  S
N956        C957   1.358       .  A
C957        N958   1.358       .  A
C957       C3406   1.485       .  S
N958        C959   1.358       .  A
C959        N960   1.364       .  A
C959       C1697   1.485       .  S
N961        N962   1.322       .  A
N961        C965   1.348       .  A
N961       Cu969   2.084       .  S
N962        C963   1.350       .  A
N962       Cu968   2.100       .  S
C963        C964   1.392       .  A
C963        H966   1.079       .  S
C964        C965   1.387       .  A
C964       C1706   1.498       .  S
C965        H967   1.081       .  S
Cu968       N971   2.100       .  S
Cu969       N979   2.083       .  S
Cu970       N972   2.091       .  S
Cu970       N978   2.090       .  S
N971        N972   1.324       .  A
N971        C975   1.350       .  A
N972        C973   1.347       .  A
C973        C974   1.387       .  A
C973        H976   1.081       .  S
C974        C975   1.390       .  A
C974       C1757   1.495       .  S
C975        H977   1.080       .  S
N978        N979   1.321       .  A
N978        C982   1.349       .  A
N979        C980   1.345       .  A
C980        C981   1.389       .  A
C980        H983   1.082       .  S
C981        C982   1.393       .  A
C981       C1857   1.501       .  S
C982        H984   1.082       .  S
N985        N986   1.323       .  A
N985        C989   1.348       .  A
N985       Cu993   2.088       .  S
N986        C987   1.346       .  A
N986       Cu992   2.075       .  S
C987        C988   1.383       .  A
C987        H990   1.081       .  S
C988        C989   1.386       .  A
C988       C1737   1.484       .  S
C989        H991   1.082       .  S
Cu992       N995   2.075       .  S
Cu993      N1003   2.088       .  S
Cu994       N996   2.081       .  S
Cu994      N1002   2.081       .  S
N995        N996   1.322       .  A
N995        C999   1.346       .  A
N996        C997   1.346       .  A
C997        C998   1.385       .  A
C997       H1000   1.082       .  S
C998        C999   1.383       .  A
C998       C1797   1.480       .  S
C999       H1001   1.082       .  S
N1002      N1003   1.323       .  A
N1002      C1006   1.345       .  A
N1003      C1004   1.348       .  A
C1004      C1005   1.388       .  A
C1004      H1007   1.082       .  S
C1005      C1006   1.385       .  A
C1005      C1677   1.490       .  S
C1006      H1008   1.082       .  S
N1009      N1010   1.322       .  A
N1009      C1013   1.347       .  A
N1009     Cu1017   2.083       .  S
N1010      C1011   1.346       .  A
N1010     Cu1016   2.073       .  S
C1011      C1012   1.383       .  A
C1011      H1014   1.080       .  S
C1012      C1013   1.385       .  A
C1012      C1826   1.481       .  S
C1013      H1015   1.081       .  S
Cu1016     N1019   2.073       .  S
Cu1017     N1027   2.082       .  S
Cu1018     N1020   2.075       .  S
Cu1018     N1026   2.076       .  S
N1019      N1020   1.322       .  A
N1019      C1023   1.345       .  A
N1020      C1021   1.345       .  A
C1021      C1022   1.384       .  A
C1021      H1024   1.080       .  S
C1022      C1023   1.384       .  A
C1022      C1777   1.481       .  S
C1023      H1025   1.080       .  S
N1026      N1027   1.323       .  A
N1026      C1030   1.346       .  A
N1027      C1028   1.345       .  A
C1028      C1029   1.384       .  A
C1028      H1031   1.083       .  S
C1029      C1030   1.383       .  A
C1029      C1886   1.481       .  S
C1030      H1032   1.082       .  S
N1033      N1034   1.322       .  A
N1033      C1037   1.348       .  A
N1033     Cu1041   2.088       .  S
N1034      C1035   1.344       .  A
N1034     Cu1040   2.074       .  S
C1035      C1036   1.385       .  A
C1035      H1038   1.080       .  S
C1036      C1037   1.389       .  A
C1036      C1846   1.490       .  S
C1037      H1039   1.079       .  S
Cu1040     N1043   2.074       .  S
Cu1041     N1051   2.088       .  S
Cu1042     N1044   2.090       .  S
Cu1042     N1050   2.090       .  S
N1043      N1044   1.322       .  A
N1043      C1047   1.346       .  A
N1044      C1045   1.348       .  A
C1045      C1046   1.389       .  A
C1045      H1048   1.081       .  S
C1046      C1047   1.385       .  A
C1046      C1726   1.490       .  S
C1047      H1049   1.081       .  S
N1050      N1051   1.323       .  A
N1050      C1054   1.347       .  A
N1051      C1052   1.347       .  A
C1052      C1053   1.388       .  A
C1052      H1055   1.084       .  S
C1053      C1054   1.389       .  A
C1053      C1657   1.496       .  S
C1054      H1056   1.083       .  S
C1057      N1058   1.361       .  A
C1057      N1062   1.359       .  A
C1057      C1617   1.496       .  S
N1058      C1059   1.357       .  A
C1059      N1060   1.353       .  A
C1059      C2986   1.468       .  S
N1060      C1061   1.354       .  A
C1061      N1062   1.356       .  A
C1061      C1637   1.466       .  S
C1063      N1064   1.356       .  A
C1063      N1068   1.360       .  A
C1063      C1577   1.473       .  S
N1064      C1065   1.356       .  A
C1065      N1066   1.359       .  A
C1065      C3366   1.482       .  S
N1066      C1067   1.359       .  A
C1067      N1068   1.360       .  A
C1067      C1597   1.476       .  S
C1069      N1070   1.360       .  A
C1069      N1074   1.357       .  A
C1069      C1537   1.473       .  S
N1070      C1071   1.360       .  A
C1071      N1072   1.359       .  A
C1071      C2886   1.489       .  S
N1072      C1073   1.360       .  A
C1073      N1074   1.358       .  A
C1073      C1557   1.478       .  S
N1075      N1076   1.322       .  A
N1075      C1079   1.346       .  A
N1075     Cu1083   2.082       .  S
N1076      C1077   1.346       .  A
N1076     Cu1082   2.077       .  S
C1077      C1078   1.386       .  A
C1077      H1080   1.080       .  S
C1078      C1079   1.386       .  A
C1078      C1546   1.488       .  S
C1079      H1081   1.081       .  S
Cu1082     N1085   2.077       .  S
Cu1083     N1093   2.082       .  S
Cu1084     N1086   2.077       .  S
Cu1084     N1092   2.076       .  S
N1085      N1086   1.322       .  A
N1085      C1089   1.346       .  A
N1086      C1087   1.344       .  A
C1087      C1088   1.385       .  A
C1087      H1090   1.080       .  S
C1088      C1089   1.386       .  A
C1088      C1586   1.485       .  S
C1089      H1091   1.079       .  S
N1092      N1093   1.321       .  A
N1092      C1096   1.345       .  A
N1093      C1094   1.346       .  A
C1094      C1095   1.389       .  A
C1094      H1097   1.083       .  S
C1095      C1096   1.388       .  A
C1095      C1666   1.493       .  S
C1096      H1098   1.083       .  S
N1099      N1100   1.322       .  A
N1099      C1103   1.346       .  A
N1099     Cu1107   2.082       .  S
N1100      C1101   1.344       .  A
N1100     Cu1106   2.061       .  S
C1101      C1102   1.382       .  A
C1101      H1104   1.079       .  S
C1102      C1103   1.386       .  A
C1102      C1646   1.480       .  S
C1103      H1105   1.080       .  S
Cu1106     N1109   2.062       .  S
Cu1107     N1117   2.083       .  S
Cu1108     N1110   2.091       .  S
Cu1108     N1116   2.092       .  S
N1109      N1110   1.323       .  A
N1109      C1113   1.344       .  A
N1110      C1111   1.347       .  A
C1111      C1112   1.387       .  A
C1111      H1114   1.082       .  S
C1112      C1113   1.381       .  A
C1112      C1566   1.480       .  S
C1113      H1115   1.082       .  S
N1116      N1117   1.324       .  A
N1116      C1120   1.349       .  A
N1117      C1118   1.347       .  A
C1118      C1119   1.383       .  A
C1118      H1121   1.083       .  S
C1119      C1120   1.385       .  A
C1119      C1517   1.482       .  S
C1120      H1122   1.083       .  S
C1123      N1124   1.357       .  A
C1123      N1128   1.361       .  A
C1123      C1477   1.476       .  S
N1124      C1125   1.357       .  A
C1125      N1126   1.359       .  A
C1125      C2637   1.487       .  S
N1126      C1127   1.360       .  A
C1127      N1128   1.362       .  A
C1127      C1506   1.491       .  S
N1129      N1130   1.323       .  A
N1129      C1133   1.345       .  A
N1129     Cu1137   2.073       .  S
N1130      C1131   1.346       .  A
N1130     Cu1136   2.075       .  S
C1131      C1132   1.383       .  A
C1131      H1134   1.082       .  S
C1132      C1133   1.382       .  A
C1132      C1626   1.477       .  S
C1133      H1135   1.081       .  S
Cu1136     N1139   2.075       .  S
Cu1137     N1147   2.073       .  S
Cu1138     N1140   2.087       .  S
Cu1138     N1146   2.087       .  S
N1139      N1140   1.323       .  A
N1139      C1143   1.346       .  A
N1140      C1141   1.346       .  A
C1141      C1142   1.387       .  A
C1141      H1144   1.082       .  S
C1142      C1143   1.385       .  A
C1142      C1486   1.487       .  S
C1143      H1145   1.081       .  S
N1146      N1147   1.323       .  A
N1146      C1150   1.348       .  A
N1147      C1148   1.345       .  A
C1148      C1149   1.382       .  A
C1148      H1151   1.082       .  S
C1149      C1150   1.386       .  A
C1149      C1686   1.482       .  S
C1150      H1152   1.082       .  S
N1153      N1154   1.323       .  A
N1153      C1157   1.346       .  A
N1153     Cu1161   2.081       .  S
N1154      C1155   1.349       .  A
N1154     Cu1160   2.089       .  S
C1155      C1156   1.388       .  A
C1155      H1158   1.079       .  S
C1156      C1157   1.385       .  A
C1156      C1606   1.488       .  S
C1157      H1159   1.080       .  S
Cu1160     N1163   2.089       .  S
Cu1161     N1171   2.081       .  S
Cu1162     N1164   2.084       .  S
Cu1162     N1170   2.084       .  S
N1163      N1164   1.323       .  A
N1163      C1167   1.348       .  A
N1164      C1165   1.346       .  A
C1165      C1166   1.386       .  A
C1165      H1168   1.082       .  S
C1166      C1167   1.388       .  A
C1166      C1497   1.492       .  S
C1167      H1169   1.082       .  S
N1170      N1171   1.323       .  A
N1170      C1174   1.347       .  A
N1171      C1172   1.347       .  A
C1172      C1173   1.383       .  A
C1172      H1175   1.082       .  S
C1173      C1174   1.384       .  A
C1173      C1457   1.481       .  S
C1174      H1176   1.082       .  S
C1177      N1178   1.362       .  A
C1177      N1182   1.362       .  A
C1177      C1437   1.495       .  S
N1178      C1179   1.361       .  A
C1179      N1180   1.357       .  A
C1179      C1417   1.480       .  S
N1180      C1181   1.357       .  A
C1181      N1182   1.358       .  A
C1181      C2997   1.480       .  S
C1183      N1184   1.358       .  A
C1183      N1188   1.362       .  A
C1183      C1397   1.480       .  S
N1184      C1185   1.358       .  A
C1185      N1186   1.360       .  A
C1185      C2926   1.484       .  S
N1186      C1187   1.361       .  A
C1187      N1188   1.363       .  A
C1187      C1377   1.484       .  S
N1189      N1190   1.323       .  A
N1189      C1193   1.349       .  A
N1189     Cu1197   2.101       .  S
N1190      C1191   1.348       .  A
N1190     Cu1196   2.090       .  S
C1191      C1192   1.389       .  A
C1191      H1194   1.079       .  S
C1192      C1193   1.391       .  A
C1192      C1386   1.499       .  S
C1193      H1195   1.079       .  S
Cu1196     N1199   2.090       .  S
Cu1197     N1207   2.101       .  S
Cu1198     N1200   2.078       .  S
Cu1198     N1206   2.078       .  S
N1199      N1200   1.322       .  A
N1199      C1203   1.349       .  A
N1200      C1201   1.346       .  A
C1201      C1202   1.385       .  A
C1201      H1204   1.081       .  S
C1202      C1203   1.389       .  A
C1202      C1426   1.490       .  S
C1203      H1205   1.081       .  S
N1206      N1207   1.323       .  A
N1206      C1210   1.347       .  A
N1207      C1208   1.349       .  A
C1208      C1209   1.389       .  A
C1208      H1211   1.083       .  S
C1209      C1210   1.383       .  A
C1209      C1526   1.489       .  S
C1210      H1212   1.083       .  S
C1213      N1214   1.361       .  A
C1213      N1218   1.361       .  A
C1213      C1337   1.478       .  S
N1214      C1215   1.360       .  A
C1215      N1216   1.355       .  A
C1215      C1357   1.474       .  S
N1216      C1217   1.356       .  A
C1217      N1218   1.360       .  A
C1217      C3217   1.484       .  S
C1219      N1220   1.363       .  A
C1219      N1224   1.364       .  A
C1219      C1306   1.499       .  S
N1220      C1221   1.360       .  A
C1221      N1222   1.356       .  A
C1221      C1317   1.478       .  S
N1222      C1223   1.356       .  A
C1223      N1224   1.362       .  A
C1223      C2606   1.490       .  S
N1225      N1226   1.322       .  A
N1225      C1229   1.346       .  A
N1225     Cu1233   2.077       .  S
N1226      C1227   1.348       .  A
N1226     Cu1232   2.089       .  S
C1227      C1228   1.389       .  A
C1227      H1230   1.080       .  S
C1228      C1229   1.385       .  A
C1228      C1326   1.490       .  S
C1229      H1231   1.082       .  S
Cu1232     N1235   2.089       .  S
Cu1233     N1243   2.077       .  S
Cu1234     N1236   2.087       .  S
Cu1234     N1242   2.087       .  S
N1235      N1236   1.324       .  A
N1235      C1239   1.348       .  A
N1236      C1237   1.347       .  A
C1237      C1238   1.387       .  A
C1237      H1240   1.080       .  S
C1238      C1239   1.387       .  A
C1238      C1346   1.490       .  S
C1239      H1241   1.080       .  S
N1242      N1243   1.323       .  A
N1242      C1246   1.348       .  A
N1243      C1244   1.346       .  A
C1244      C1245   1.383       .  A
C1244      H1247   1.083       .  S
C1245      C1246   1.386       .  A
C1245      C1466   1.483       .  S
C1246      H1248   1.082       .  S
N1249      N1250   1.323       .  A
N1249      C1253   1.348       .  A
N1249     Cu1257   2.095       .  S
N1250      C1251   1.347       .  A
N1250     Cu1256   2.084       .  S
C1251      C1252   1.386       .  A
C1251      H1254   1.081       .  S
C1252      C1253   1.389       .  A
C1252      C1406   1.493       .  S
C1253      H1255   1.082       .  S
Cu1256     N1259   2.084       .  S
Cu1257     N1267   2.095       .  S
Cu1258     N1260   2.088       .  S
Cu1258     N1266   2.088       .  S
N1259      N1260   1.322       .  A
N1259      C1263   1.348       .  A
N1260      C1261   1.346       .  A
C1261      C1262   1.389       .  A
C1261      H1264   1.081       .  S
C1262      C1263   1.389       .  A
C1262      C1297   1.495       .  S
C1263      H1265   1.082       .  S
N1266      N1267   1.324       .  A
N1266      C1270   1.348       .  A
N1267      C1268   1.349       .  A
C1268      C1269   1.386       .  A
C1268      H1271   1.083       .  S
C1269      C1270   1.384       .  A
C1269      C2426   1.485       .  S
C1270      H1272   1.083       .  S
N1273      N1274   1.324       .  A
N1273      C1277   1.347       .  A
N1273     Cu1281   2.086       .  S
N1274      C1275   1.346       .  A
N1274     Cu1280   2.085       .  S
C1275      C1276   1.384       .  A
C1275      H1278   1.081       .  S
C1276      C1277   1.386       .  A
C1276      C1366   1.486       .  S
C1277      H1279   1.083       .  S
Cu1280     N1283   2.084       .  S
Cu1281     N1291   2.086       .  S
Cu1282     N1284   2.077       .  S
Cu1282     N1290   2.078       .  S
N1283      N1284   1.321       .  A
N1283      C1287   1.348       .  A
N1284      C1285   1.344       .  A
C1285      C1286   1.387       .  A
C1285      H1288   1.081       .  S
C1286      C1287   1.390       .  A
C1286      C1446   1.495       .  S
C1287      H1289   1.082       .  S
N1290      N1291   1.323       .  A
N1290      C1294   1.346       .  A
N1291      C1292   1.348       .  A
C1292      C1293   1.385       .  A
C1292      H1295   1.082       .  S
C1293      C1294   1.382       .  A
C1293      C2306   1.482       .  S
C1294      H1296   1.082       .  S
C1297      C1298   1.418       .  A
C1297      C1302   1.416       .  A
C1298      C1299   1.412       .  A
C1298     Br1310   1.931       .  S
C1299      C1300   1.409       .  A
C1299     Br1314   1.930       .  S
C1300      C1301   1.409       .  A
C1300      C1303   1.494       .  S
C1301      C1302   1.411       .  A
C1301     Br1309   1.930       .  S
C1302     Br1313   1.931       .  S
C1303      C1304   1.407       .  A
C1303      C1308   1.408       .  A
C1304      C1305   1.412       .  A
C1304     Br1315   1.931       .  S
C1305      C1306   1.420       .  A
C1305     Br1311   1.932       .  S
C1306      C1307   1.419       .  A
C1307      C1308   1.412       .  A
C1307     Br1316   1.932       .  S
C1308     Br1312   1.931       .  S
C1317      C1318   1.409       .  A
C1317      C1322   1.410       .  A
C1318      C1319   1.410       .  A
C1318     Br1330   1.928       .  S
C1319      C1320   1.410       .  A
C1319     Br1334   1.928       .  S
C1320      C1321   1.410       .  A
C1320      C1323   1.489       .  S
C1321      C1322   1.408       .  A
C1321     Br1329   1.929       .  S
C1322     Br1333   1.930       .  S
C1323      C1324   1.408       .  A
C1323      C1328   1.409       .  A
C1324      C1325   1.410       .  A
C1324     Br1335   1.929       .  S
C1325      C1326   1.415       .  A
C1325     Br1331   1.930       .  S
C1326      C1327   1.415       .  A
C1327      C1328   1.410       .  A
C1327     Br1336   1.931       .  S
C1328     Br1332   1.931       .  S
C1337      C1338   1.409       .  A
C1337      C1342   1.409       .  A
C1338      C1339   1.408       .  A
C1338     Br1350   1.928       .  S
C1339      C1340   1.409       .  A
C1339     Br1354   1.929       .  S
C1340      C1341   1.411       .  A
C1340      C1343   1.489       .  S
C1341      C1342   1.410       .  A
C1341     Br1349   1.928       .  S
C1342     Br1353   1.928       .  S
C1343      C1344   1.408       .  A
C1343      C1348   1.408       .  A
C1344      C1345   1.409       .  A
C1344     Br1355   1.931       .  S
C1345      C1346   1.415       .  A
C1345     Br1351   1.931       .  S
C1346      C1347   1.416       .  A
C1347      C1348   1.411       .  A
C1347     Br1356   1.930       .  S
C1348     Br1352   1.930       .  S
C1357      C1358   1.409       .  A
C1357      C1362   1.409       .  A
C1358      C1359   1.407       .  A
C1358     Br1370   1.931       .  S
C1359      C1360   1.409       .  A
C1359     Br1374   1.929       .  S
C1360      C1361   1.410       .  A
C1360      C1363   1.486       .  S
C1361      C1362   1.409       .  A
C1361     Br1369   1.928       .  S
C1362     Br1373   1.929       .  S
C1363      C1364   1.408       .  A
C1363      C1368   1.408       .  A
C1364      C1365   1.408       .  A
C1364     Br1375   1.931       .  S
C1365      C1366   1.414       .  A
C1365     Br1371   1.930       .  S
C1366      C1367   1.414       .  A
C1367      C1368   1.409       .  A
C1367     Br1376   1.930       .  S
C1368     Br1372   1.930       .  S
C1377      C1378   1.411       .  A
C1377      C1382   1.410       .  A
C1378      C1379   1.412       .  A
C1378     Br1390   1.929       .  S
C1379      C1380   1.411       .  A
C1379     Br1394   1.928       .  S
C1380      C1381   1.411       .  A
C1380      C1383   1.496       .  S
C1381      C1382   1.411       .  A
C1381     Br1389   1.928       .  S
C1382     Br1393   1.929       .  S
C1383      C1384   1.409       .  A
C1383      C1388   1.409       .  A
C1384      C1385   1.412       .  A
C1384     Br1395   1.931       .  S
C1385      C1386   1.417       .  A
C1385     Br1391   1.931       .  S
C1386      C1387   1.419       .  A
C1387      C1388   1.414       .  A
C1387     Br1396   1.931       .  S
C1388     Br1392   1.930       .  S
C1397      C1398   1.409       .  A
C1397      C1402   1.409       .  A
C1398      C1399   1.411       .  A
C1398     Br1410   1.928       .  S
C1399      C1400   1.411       .  A
C1399     Br1414   1.928       .  S
C1400      C1401   1.411       .  A
C1400      C1403   1.493       .  S
C1401      C1402   1.410       .  A
C1401     Br1409   1.929       .  S
C1402     Br1413   1.929       .  S
C1403      C1404   1.409       .  A
C1403      C1408   1.409       .  A
C1404      C1405   1.412       .  A
C1404     Br1415   1.930       .  S
C1405      C1406   1.417       .  A
C1405     Br1411   1.930       .  S
C1406      C1407   1.415       .  A
C1407      C1408   1.411       .  A
C1407     Br1416   1.931       .  S
C1408     Br1412   1.930       .  S
C1417      C1418   1.410       .  A
C1417      C1422   1.412       .  A
C1418      C1419   1.409       .  A
C1418     Br1430   1.929       .  S
C1419      C1420   1.410       .  A
C1419     Br1434   1.929       .  S
C1420      C1421   1.409       .  A
C1420      C1423   1.489       .  S
C1421      C1422   1.409       .  A
C1421     Br1429   1.929       .  S
C1422     Br1433   1.930       .  S
C1423      C1424   1.408       .  A
C1423      C1428   1.408       .  A
C1424      C1425   1.411       .  A
C1424     Br1435   1.930       .  S
C1425      C1426   1.415       .  A
C1425     Br1431   1.930       .  S
C1426      C1427   1.416       .  A
C1427      C1428   1.409       .  A
C1427     Br1436   1.931       .  S
C1428     Br1432   1.931       .  S
C1437      C1438   1.419       .  A
C1437      C1442   1.418       .  A
C1438      C1439   1.412       .  A
C1438     Br1450   1.932       .  S
C1439      C1440   1.409       .  A
C1439     Br1454   1.931       .  S
C1440      C1441   1.408       .  A
C1440      C1443   1.491       .  S
C1441      C1442   1.409       .  A
C1441     Br1449   1.932       .  S
C1442     Br1453   1.933       .  S
C1443      C1444   1.409       .  A
C1443      C1448   1.408       .  A
C1444      C1445   1.412       .  A
C1444     Br1455   1.930       .  S
C1445      C1446   1.418       .  A
C1445     Br1451   1.930       .  S
C1446      C1447   1.418       .  A
C1447      C1448   1.409       .  A
C1447     Br1456   1.932       .  S
C1448     Br1452   1.932       .  S
C1457      C1458   1.410       .  A
C1457      C1462   1.410       .  A
C1458      C1459   1.409       .  A
C1458     Br1470   1.929       .  S
C1459      C1460   1.410       .  A
C1459     Br1474   1.929       .  S
C1460      C1461   1.410       .  A
C1460      C1463   1.489       .  S
C1461      C1462   1.410       .  A
C1461     Br1469   1.928       .  S
C1462     Br1473   1.928       .  S
C1463      C1464   1.410       .  A
C1463      C1468   1.409       .  A
C1464      C1465   1.410       .  A
C1464     Br1475   1.929       .  S
C1465      C1466   1.412       .  A
C1465     Br1471   1.929       .  S
C1466      C1467   1.411       .  A
C1467      C1468   1.409       .  A
C1467     Br1476   1.929       .  S
C1468     Br1472   1.929       .  S
C1477      C1478   1.410       .  A
C1477      C1482   1.409       .  A
C1478      C1479   1.409       .  A
C1478     Br1490   1.929       .  S
C1479      C1480   1.409       .  A
C1479     Br1494   1.928       .  S
C1480      C1481   1.410       .  A
C1480      C1483   1.487       .  S
C1481      C1482   1.407       .  A
C1481     Br1489   1.930       .  S
C1482     Br1493   1.930       .  S
C1483      C1484   1.408       .  A
C1483      C1488   1.407       .  A
C1484      C1485   1.409       .  A
C1484     Br1495   1.930       .  S
C1485      C1486   1.414       .  A
C1485     Br1491   1.931       .  S
C1486      C1487   1.415       .  A
C1487      C1488   1.409       .  A
C1487     Br1496   1.930       .  S
C1488     Br1492   1.930       .  S
C1497      C1498   1.416       .  A
C1497      C1502   1.415       .  A
C1498      C1499   1.411       .  A
C1498     Br1510   1.930       .  S
C1499      C1500   1.409       .  A
C1499     Br1514   1.931       .  S
C1500      C1501   1.410       .  A
C1500      C1503   1.493       .  S
C1501      C1502   1.410       .  A
C1501     Br1509   1.931       .  S
C1502     Br1513   1.931       .  S
C1503      C1504   1.409       .  A
C1503      C1508   1.409       .  A
C1504      C1505   1.410       .  A
C1504     Br1515   1.931       .  S
C1505      C1506   1.416       .  A
C1505     Br1511   1.932       .  S
C1506      C1507   1.417       .  A
C1507      C1508   1.411       .  A
C1507     Br1516   1.931       .  S
C1508     Br1512   1.931       .  S
C1517      C1518   1.409       .  A
C1517      C1522   1.410       .  A
C1518      C1519   1.410       .  A
C1518     Br1530   1.929       .  S
C1519      C1520   1.411       .  A
C1519     Br1534   1.928       .  S
C1520      C1521   1.411       .  A
C1520      C1523   1.493       .  S
C1521      C1522   1.411       .  A
C1521     Br1529   1.928       .  S
C1522     Br1533   1.928       .  S
C1523      C1524   1.410   1_556  A
C1523      C1528   1.410   1_556  A
C1524      C1525   1.411       .  A
C1524     Br1535   1.930   1_554  S
C1525      C1526   1.412       .  A
C1525     Br1531   1.929       .  S
C1526      C1527   1.413       .  A
C1527      C1528   1.412       .  A
C1527     Br1536   1.929       .  S
C1528     Br1532   1.929   1_554  S
C1537      C1538   1.408       .  A
C1537      C1542   1.409       .  A
C1538      C1539   1.407       .  A
C1538     Br1550   1.928       .  S
C1539      C1540   1.410       .  A
C1539     Br1554   1.929       .  S
C1540      C1541   1.410       .  A
C1540      C1543   1.486       .  S
C1541      C1542   1.408       .  A
C1541     Br1549   1.929       .  S
C1542     Br1553   1.928       .  S
C1543      C1544   1.408       .  A
C1543      C1548   1.407       .  A
C1544      C1545   1.408       .  A
C1544     Br1555   1.932       .  S
C1545      C1546   1.415       .  A
C1545     Br1551   1.931       .  S
C1546      C1547   1.417       .  A
C1547      C1548   1.409       .  A
C1547     Br1556   1.931       .  S
C1548     Br1552   1.930       .  S
C1557      C1558   1.412       .  A
C1557      C1562   1.411       .  A
C1558      C1559   1.409       .  A
C1558     Br1570   1.929       .  S
C1559      C1560   1.409       .  A
C1559     Br1574   1.929       .  S
C1560      C1561   1.408       .  A
C1560      C1563   1.484       .  S
C1561      C1562   1.406       .  A
C1561     Br1569   1.929       .  S
C1562     Br1573   1.931       .  S
C1563      C1564   1.409       .  A
C1563      C1568   1.408       .  A
C1564      C1565   1.409       .  A
C1564     Br1575   1.929       .  S
C1565      C1566   1.413       .  A
C1565     Br1571   1.930       .  S
C1566      C1567   1.411       .  A
C1567      C1568   1.406       .  A
C1567     Br1576   1.930       .  S
C1568     Br1572   1.930       .  S
C1577      C1578   1.409       .  A
C1577      C1582   1.409       .  A
C1578      C1579   1.407       .  A
C1578     Br1590   1.930       .  S
C1579      C1580   1.410       .  A
C1579     Br1594   1.930       .  S
C1580      C1581   1.409       .  A
C1580      C1583   1.485       .  S
C1581      C1582   1.407       .  A
C1581     Br1589   1.929       .  S
C1582     Br1593   1.929       .  S
C1583      C1584   1.408       .  A
C1583      C1588   1.408       .  A
C1584      C1585   1.408       .  A
C1584     Br1595   1.931       .  S
C1585      C1586   1.415       .  A
C1585     Br1591   1.931       .  S
C1586      C1587   1.415       .  A
C1587      C1588   1.407       .  A
C1587     Br1596   1.931       .  S
C1588     Br1592   1.931       .  S
C1597      C1598   1.409       .  A
C1597      C1602   1.408       .  A
C1598      C1599   1.410       .  A
C1598     Br1610   1.928       .  S
C1599      C1600   1.411       .  A
C1599     Br1614   1.928       .  S
C1600      C1601   1.410       .  A
C1600      C1603   1.489       .  S
C1601      C1602   1.408       .  A
C1601     Br1609   1.929       .  S
C1602     Br1613   1.929       .  S
C1603      C1604   1.409       .  A
C1603      C1608   1.409       .  A
C1604      C1605   1.410       .  A
C1604     Br1615   1.930       .  S
C1605      C1606   1.414       .  A
C1605     Br1611   1.930       .  S
C1606      C1607   1.414       .  A
C1607      C1608   1.410       .  A
C1607     Br1616   1.930       .  S
C1608     Br1612   1.930       .  S
C1617      C1618   1.422       .  A
C1617      C1622   1.424       .  A
C1618      C1619   1.407       .  A
C1618     Br1630   1.934       .  S
C1619      C1620   1.405       .  A
C1619     Br1634   1.933       .  S
C1620      C1621   1.404       .  A
C1620      C1623   1.483       .  S
C1621      C1622   1.408       .  A
C1621     Br1629   1.933       .  S
C1622     Br1633   1.936       .  S
C1623      C1624   1.409       .  A
C1623      C1628   1.409       .  A
C1624      C1625   1.406       .  A
C1624     Br1635   1.931       .  S
C1625      C1626   1.410       .  A
C1625     Br1631   1.930       .  S
C1626      C1627   1.411       .  A
C1627      C1628   1.407       .  A
C1627     Br1636   1.930       .  S
C1628     Br1632   1.930       .  S
C1637      C1638   1.408       .  A
C1637      C1642   1.406       .  A
C1638      C1639   1.403       .  A
C1638     Br1650   1.930       .  S
C1639      C1640   1.409       .  A
C1639     Br1654   1.931       .  S
C1640      C1641   1.411       .  A
C1640      C1643   1.481       .  S
C1641      C1642   1.407       .  A
C1641     Br1649   1.929       .  S
C1642     Br1653   1.928       .  S
C1643      C1644   1.408       .  A
C1643      C1648   1.408       .  A
C1644      C1645   1.405       .  A
C1644     Br1655   1.931       .  S
C1645      C1646   1.412       .  A
C1645     Br1651   1.930       .  S
C1646      C1647   1.414       .  A
C1647      C1648   1.407       .  A
C1647     Br1656   1.931       .  S
C1648     Br1652   1.932       .  S
C1657      C1658   1.418       .  A
C1657      C1662   1.417       .  A
C1658      C1659   1.411       .  A
C1658     Br1670   1.931       .  S
C1659      C1660   1.409       .  A
C1659     Br1674   1.931       .  S
C1660      C1661   1.409       .  A
C1660      C1663   1.494       .  S
C1661      C1662   1.411       .  A
C1661     Br1669   1.932       .  S
C1662     Br1673   1.931       .  S
C1663      C1664   1.410       .  A
C1663      C1668   1.409       .  A
C1664      C1665   1.411       .  A
C1664     Br1675   1.930       .  S
C1665      C1666   1.417       .  A
C1665     Br1671   1.931       .  S
C1666      C1667   1.417       .  A
C1667      C1668   1.410       .  A
C1667     Br1676   1.932       .  S
C1668     Br1672   1.931       .  S
C1677      C1678   1.415       .  A
C1677      C1682   1.415       .  A
C1678      C1679   1.411       .  A
C1678     Br1690   1.930       .  S
C1679      C1680   1.409       .  A
C1679     Br1694   1.930       .  S
C1680      C1681   1.408       .  A
C1680      C1683   1.489   1_545  S
C1681      C1682   1.409       .  A
C1681     Br1689   1.930       .  S
C1682     Br1693   1.931       .  S
C1683      C1684   1.410       .  A
C1683      C1688   1.410       .  A
C1684      C1685   1.409       .  A
C1684     Br1695   1.929       .  S
C1685      C1686   1.410       .  A
C1685     Br1691   1.929       .  S
C1686      C1687   1.411       .  A
C1687      C1688   1.409       .  A
C1687     Br1696   1.930       .  S
C1688     Br1692   1.929   1_565  S
C1697      C1698   1.411       .  A
C1697      C1702   1.410       .  A
C1698      C1699   1.412       .  A
C1698     Br1710   1.930       .  S
C1699      C1700   1.411       .  A
C1699     Br1714   1.928       .  S
C1700      C1701   1.412       .  A
C1700      C1703   1.497       .  S
C1701      C1702   1.412       .  A
C1701     Br1709   1.929       .  S
C1702     Br1713   1.928       .  S
C1703      C1704   1.410       .  A
C1703      C1708   1.409       .  A
C1704      C1705   1.413       .  A
C1704     Br1715   1.930       .  S
C1705      C1706   1.417       .  A
C1705     Br1711   1.931       .  S
C1706      C1707   1.416       .  A
C1707      C1708   1.413       .  A
C1707     Br1716   1.930       .  S
C1708     Br1712   1.930       .  S
C1717      C1718   1.410       .  A
C1717      C1722   1.409       .  A
C1718      C1719   1.412       .  A
C1718     Br1730   1.927       .  S
C1719      C1720   1.411       .  A
C1719     Br1734   1.928       .  S
C1720      C1721   1.411       .  A
C1720      C1723   1.492       .  S
C1721      C1722   1.408       .  A
C1721     Br1729   1.931       .  S
C1722     Br1733   1.928       .  S
C1723      C1724   1.410       .  A
C1723      C1728   1.408       .  A
C1724      C1725   1.411       .  A
C1724     Br1735   1.930       .  S
C1725      C1726   1.414       .  A
C1725     Br1731   1.930       .  S
C1726      C1727   1.416       .  A
C1727      C1728   1.410       .  A
C1727     Br1736   1.931       .  S
C1728     Br1732   1.930       .  S
C1737      C1738   1.413       .  A
C1737      C1742   1.411       .  A
C1738      C1739   1.411       .  A
C1738     Br1750   1.930       .  S
C1739      C1740   1.409       .  A
C1739     Br1754   1.928       .  S
C1740      C1741   1.410       .  A
C1740      C1743   1.489       .  S
C1741      C1742   1.408       .  A
C1741     Br1749   1.931       .  S
C1742     Br1753   1.930       .  S
C1743      C1744   1.409       .  A
C1743      C1748   1.410       .  A
C1744      C1745   1.409       .  A
C1744     Br1755   1.930       .  S
C1745      C1746   1.412       .  A
C1745     Br1751   1.930       .  S
C1746      C1747   1.411       .  A
C1747      C1748   1.410       .  A
C1747     Br1756   1.929       .  S
C1748     Br1752   1.929       .  S
C1757      C1758   1.416       .  A
C1757      C1762   1.416       .  A
C1758      C1759   1.412       .  A
C1758     Br1770   1.931       .  S
C1759      C1760   1.410       .  A
C1759     Br1774   1.931       .  S
C1760      C1761   1.410       .  A
C1760      C1763   1.497       .  S
C1761      C1762   1.412       .  A
C1761     Br1769   1.930       .  S
C1762     Br1773   1.930       .  S
C1763      C1764   1.408       .  A
C1763      C1768   1.409       .  A
C1764      C1765   1.412       .  A
C1764     Br1775   1.933       .  S
C1765      C1766   1.424       .  A
C1765     Br1771   1.935       .  S
C1766      C1767   1.421       .  A
C1767      C1768   1.413       .  A
C1767     Br1776   1.933       .  S
C1768     Br1772   1.932       .  S
C1777      C1778   1.412       .  A
C1777      C1782   1.413       .  A
C1778      C1779   1.406       .  A
C1778     Br1790   1.931       .  S
C1779      C1780   1.409       .  A
C1779     Br1794   1.932       .  S
C1780      C1781   1.409       .  A
C1780      C1783   1.484       .  S
C1781      C1782   1.408       .  A
C1781     Br1789   1.930       .  S
C1782     Br1793   1.930       .  S
C1783      C1784   1.411       .  A
C1783      C1788   1.411       .  A
C1784      C1785   1.406       .  A
C1784     Br1795   1.930       .  S
C1785      C1786   1.408       .  A
C1785     Br1791   1.930       .  S
C1786      C1787   1.407       .  A
C1787      C1788   1.406       .  A
C1787     Br1796   1.929       .  S
C1788     Br1792   1.930       .  S
C1797      C1798   1.411       .  A
C1797      C1802   1.411       .  A
C1798      C1799   1.409       .  A
C1798     Br1810   1.929       .  S
C1799      C1800   1.409       .  A
C1799     Br1814   1.929       .  S
C1800      C1801   1.410       .  A
C1800      C1803   1.486       .  S
C1801      C1802   1.407       .  A
C1801     Br1809   1.931       .  S
C1802     Br1813   1.930       .  S
C1803      C1804   1.409       .  A
C1803      C1808   1.409       .  A
C1804      C1805   1.407       .  A
C1804     Br1815   1.931       .  S
C1805      C1806   1.413       .  A
C1805     Br1811   1.932       .  S
C1806      C1807   1.413       .  A
C1807      C1808   1.409       .  A
C1807     Br1816   1.931       .  S
C1808     Br1812   1.930       .  S
C1817      C1818   1.413       .  A
C1817      C1822   1.415       .  A
C1818      C1819   1.410       .  A
C1818     Br1830   1.929       .  S
C1819      C1820   1.409       .  A
C1819     Br1834   1.930       .  S
C1820      C1821   1.407       .  A
C1820      C1823   1.487       .  S
C1821      C1822   1.408       .  A
C1821     Br1829   1.930       .  S
C1822     Br1833   1.932       .  S
C1823      C1824   1.409       .  A
C1823      C1828   1.409       .  A
C1824      C1825   1.409       .  A
C1824     Br1835   1.929       .  S
C1825      C1826   1.412       .  A
C1825     Br1831   1.930       .  S
C1826      C1827   1.412       .  A
C1827      C1828   1.408       .  A
C1827     Br1836   1.930       .  S
C1828     Br1832   1.930       .  S
C1837      C1838   1.418       .  A
C1837      C1842   1.417       .  A
C1838      C1839   1.408       .  A
C1838     Br1850   1.934       .  S
C1839      C1840   1.406       .  A
C1839     Br1854   1.931       .  S
C1840      C1841   1.408       .  A
C1840      C1843   1.487       .  S
C1841      C1842   1.409       .  A
C1841     Br1849   1.931       .  S
C1842     Br1853   1.932       .  S
C1843      C1844   1.408       .  A
C1843      C1848   1.406       .  A
C1844      C1845   1.408       .  A
C1844     Br1855   1.932       .  S
C1845      C1846   1.416       .  A
C1845     Br1851   1.930       .  S
C1846      C1847   1.417       .  A
C1847      C1848   1.409       .  A
C1847     Br1856   1.931       .  S
C1848     Br1852   1.930       .  S
C1857      C1858   1.419       .  A
C1857      C1862   1.420       .  A
C1858      C1859   1.412       .  A
C1858     Br1870   1.931       .  S
C1859      C1860   1.409       .  A
C1859     Br1874   1.933       .  S
C1860      C1861   1.408       .  A
C1860      C1863   1.494       .  S
C1861      C1862   1.411       .  A
C1861     Br1869   1.932       .  S
C1862     Br1873   1.932       .  S
C1863      C1864   1.409       .  A
C1863      C1868   1.410       .  A
C1864      C1865   1.409       .  A
C1864     Br1875   1.931       .  S
C1865      C1866   1.416       .  A
C1865     Br1871   1.932       .  S
C1866      C1867   1.417       .  A
C1867      C1868   1.411       .  A
C1867     Br1876   1.931       .  S
C1868     Br1872   1.932       .  S
C1877      C1878   1.409       .  A
C1877      C1882   1.411       .  A
C1878      C1879   1.407       .  A
C1878     Br1890   1.929       .  S
C1879      C1880   1.410       .  A
C1879     Br1894   1.930   1_655  S
C1880      C1881   1.410       .  A
C1880      C1883   1.486   1_655  S
C1881      C1882   1.409       .  A
C1881     Br1889   1.929       .  S
C1882     Br1893   1.929       .  S
C1883      C1884   1.409       .  A
C1883      C1888   1.410       .  A
C1884      C1885   1.407       .  A
C1884     Br1895   1.930       .  S
C1885      C1886   1.411       .  A
C1885     Br1891   1.930       .  S
C1886      C1887   1.412       .  A
C1887      C1888   1.410       .  A
C1887     Br1896   1.929       .  S
C1888     Br1892   1.929       .  S
C1897      C1898   1.414       .  A
C1897      C1902   1.414       .  A
C1898      C1899   1.412       .  A
C1898     Br1910   1.930       .  S
C1899      C1900   1.410       .  A
C1899     Br1914   1.929       .  S
C1900      C1901   1.409       .  A
C1900      C1903   1.493       .  S
C1901      C1902   1.410       .  A
C1901     Br1909   1.931       .  S
C1902     Br1913   1.928       .  S
C1903      C1904   1.410       .  A
C1903      C1908   1.410       .  A
C1904      C1905   1.410       .  A
C1904     Br1915   1.930       .  S
C1905      C1906   1.412       .  A
C1905     Br1911   1.930       .  S
C1906      C1907   1.414       .  A
C1907      C1908   1.412       .  A
C1907     Br1916   1.929       .  S
C1908     Br1912   1.930       .  S
C1917      C1918   1.412       .  A
C1917      C1922   1.414       .  A
C1918      C1919   1.409       .  A
C1918     Br1930   1.931       .  S
C1919      C1920   1.410       .  A
C1919     Br1934   1.930       .  S
C1920      C1921   1.409       .  A
C1920      C1923   1.490       .  S
C1921      C1922   1.410       .  A
C1921     Br1929   1.930       .  S
C1922     Br1933   1.929       .  S
C1923      C1924   1.407       .  A
C1923      C1928   1.407       .  A
C1924      C1925   1.409       .  A
C1924     Br1935   1.933       .  S
C1925      C1926   1.419       .  A
C1925     Br1931   1.932       .  S
C1926      C1927   1.420       .  A
C1927      C1928   1.411       .  A
C1927     Br1936   1.932       .  S
C1928     Br1932   1.930       .  S
C1937      C1938   1.413       .  A
C1937      C1942   1.414       .  A
C1938      C1939   1.407       .  A
C1938     Br1950   1.932       .  S
C1939      C1940   1.409       .  A
C1939     Br1954   1.930       .  S
C1940      C1941   1.407       .  A
C1940      C1943   1.484       .  S
C1941      C1942   1.407       .  A
C1941     Br1949   1.931       .  S
C1942     Br1953   1.927       .  S
C1943      C1944   1.409       .  A
C1943      C1948   1.410       .  A
C1944      C1945   1.408       .  A
C1944     Br1955   1.929       .  S
C1945      C1946   1.411       .  A
C1945     Br1951   1.929       .  S
C1946      C1947   1.409       .  A
C1947      C1948   1.407       .  A
C1947     Br1956   1.929       .  S
C1948     Br1952   1.931       .  S
C1957      C1958   1.408       .  A
C1957      C1962   1.409       .  A
C1958      C1959   1.406       .  A
C1958     Br1970   1.928       .  S
C1959      C1960   1.410       .  A
C1959     Br1974   1.930       .  S
C1960      C1961   1.408       .  A
C1960      C1963   1.482       .  S
C1961      C1962   1.406       .  A
C1961     Br1969   1.930       .  S
C1962     Br1973   1.927       .  S
C1963      C1964   1.407       .  A
C1963      C1968   1.408       .  A
C1964      C1965   1.405       .  A
C1964     Br1975   1.932       .  S
C1965      C1966   1.413       .  A
C1965     Br1971   1.932       .  S
C1966      C1967   1.414       .  A
C1967      C1968   1.409       .  A
C1967     Br1976   1.930       .  S
C1968     Br1972   1.930       .  S
C1977      C1978   1.409       .  A
C1977      C1982   1.409       .  A
C1978      C1979   1.412       .  A
C1978     Br1990   1.928       .  S
C1979      C1980   1.412       .  A
C1979     Br1994   1.928       .  S
C1980      C1981   1.411       .  A
C1980      C1983   1.495       .  S
C1981      C1982   1.409       .  A
C1981     Br1989   1.929       .  S
C1982     Br1993   1.930       .  S
C1983      C1984   1.410       .  A
C1983      C1988   1.410       .  A
C1984      C1985   1.411       .  A
C1984     Br1995   1.931       .  S
C1985      C1986   1.415       .  A
C1985     Br1991   1.930       .  S
C1986      C1987   1.415       .  A
C1987      C1988   1.411       .  A
C1987     Br1996   1.930       .  S
C1988     Br1992   1.930       .  S
C1997      C1998   1.414       .  A
C1997      C2002   1.416       .  A
C1998      C1999   1.409       .  A
C1998     Br2010   1.930       .  S
C1999      C2000   1.409       .  A
C1999     Br2014   1.930       .  S
C2000      C2001   1.409       .  A
C2000      C2003   1.490       .  S
C2001      C2002   1.409       .  A
C2001     Br2009   1.931       .  S
C2002     Br2013   1.931       .  S
C2003      C2004   1.405       .  A
C2003      C2008   1.407       .  A
C2004      C2005   1.409       .  A
C2004     Br2015   1.934       .  S
C2005      C2006   1.423       .  A
C2005     Br2011   1.934       .  S
C2006      C2007   1.422       .  A
C2007      C2008   1.413       .  A
C2007     Br2016   1.933       .  S
C2008     Br2012   1.931       .  S
C2017      C2018   1.410       .  A
C2017      C2022   1.409       .  A
C2018      C2019   1.410       .  A
C2018     Br2030   1.927       .  S
C2019      C2020   1.410       .  A
C2019     Br2034   1.929       .  S
C2020      C2021   1.410       .  A
C2020      C2023   1.491       .  S
C2021      C2022   1.409       .  A
C2021     Br2029   1.929       .  S
C2022     Br2033   1.927       .  S
C2023      C2024   1.409       .  A
C2023      C2028   1.409       .  A
C2024      C2025   1.410       .  A
C2024     Br2035   1.931       .  S
C2025      C2026   1.416       .  A
C2025     Br2031   1.931       .  S
C2026      C2027   1.415       .  A
C2027      C2028   1.411       .  A
C2027     Br2036   1.930       .  S
C2028     Br2032   1.929       .  S
C2037      C2038   1.412       .  A
C2037      C2042   1.413       .  A
C2038      C2039   1.409       .  A
C2038     Br2050   1.927       .  S
C2039      C2040   1.410       .  A
C2039     Br2054   1.931       .  S
C2040      C2041   1.411       .  A
C2040      C2043   1.492       .  S
C2041      C2042   1.410       .  A
C2041     Br2049   1.930       .  S
C2042     Br2053   1.931       .  S
C2043      C2044   1.411       .  A
C2043      C2048   1.412       .  A
C2044      C2045   1.410       .  A
C2044     Br2055   1.929       .  S
C2045      C2046   1.411       .  A
C2045     Br2051   1.930       .  S
C2046      C2047   1.409       .  A
C2047      C2048   1.409       .  A
C2047     Br2056   1.930       .  S
C2048     Br2052   1.930       .  S
C2057      C2058   1.416       .  A
C2057      C2062   1.416       .  A
C2058      C2059   1.410       .  A
C2058     Br2070   1.931       .  S
C2059      C2060   1.410       .  A
C2059     Br2074   1.932       .  S
C2060      C2061   1.409       .  A
C2060      C2063   1.492       .  S
C2061      C2062   1.410       .  A
C2061     Br2069   1.931       .  S
C2062     Br2073   1.931       .  S
C2063      C2064   1.408       .  A
C2063      C2068   1.409       .  A
C2064      C2065   1.411       .  A
C2064     Br2075   1.932       .  S
C2065      C2066   1.419       .  A
C2065     Br2071   1.932       .  S
C2066      C2067   1.417       .  A
C2067      C2068   1.410       .  A
C2067     Br2076   1.931       .  S
C2068     Br2072   1.931       .  S
C2077      C2078   1.410       .  A
C2077      C2082   1.408       .  A
C2078      C2079   1.409       .  A
C2078     Br2090   1.929       .  S
C2079      C2080   1.410       .  A
C2079     Br2094   1.928       .  S
C2080      C2081   1.409       .  A
C2080      C2083   1.485       .  S
C2081      C2082   1.407       .  A
C2081     Br2089   1.930       .  S
C2082     Br2093   1.928       .  S
C2083      C2084   1.409   1_556  A
C2083      C2088   1.408   1_556  A
C2084      C2085   1.408       .  A
C2084     Br2095   1.929   1_554  S
C2085      C2086   1.411       .  A
C2085     Br2091   1.930       .  S
C2086      C2087   1.412       .  A
C2087      C2088   1.408       .  A
C2087     Br2096   1.930       .  S
C2088     Br2092   1.930   1_554  S
C2097      C2098   1.408       .  A
C2097      C2102   1.407       .  A
C2098      C2099   1.407       .  A
C2098     Br2110   1.929       .  S
C2099      C2100   1.410       .  A
C2099     Br2114   1.929       .  S
C2100      C2101   1.409       .  A
C2100      C2103   1.484       .  S
C2101      C2102   1.407       .  A
C2101     Br2109   1.928       .  S
C2102     Br2113   1.928       .  S
C2103      C2104   1.408       .  A
C2103      C2108   1.409       .  A
C2104      C2105   1.408       .  A
C2104     Br2115   1.930       .  S
C2105      C2106   1.414       .  A
C2105     Br2111   1.930       .  S
C2106      C2107   1.412       .  A
C2107      C2108   1.407       .  A
C2107     Br2116   1.931       .  S
C2108     Br2112   1.931       .  S
C2117      C2118   1.410       .  A
C2117      C2122   1.411       .  A
C2118      C2119   1.406       .  A
C2118     Br2130   1.931       .  S
C2119      C2120   1.409       .  A
C2119     Br2134   1.930       .  S
C2120      C2121   1.409       .  A
C2120      C2123   1.483       .  S
C2121      C2122   1.408       .  A
C2121     Br2129   1.929       .  S
C2122     Br2133   1.929       .  S
C2123      C2124   1.409       .  A
C2123      C2128   1.408       .  A
C2124      C2125   1.408       .  A
C2124     Br2135   1.930       .  S
C2125      C2126   1.412       .  A
C2125     Br2131   1.930       .  S
C2126      C2127   1.411       .  A
C2127      C2128   1.406       .  A
C2127     Br2136   1.930       .  S
C2128     Br2132   1.930       .  S
C2137      C2138   1.408       .  A
C2137      C2142   1.408       .  A
C2138      C2139   1.408       .  A
C2138     Br2150   1.928       .  S
C2139      C2140   1.410       .  A
C2139     Br2154   1.928       .  S
C2140      C2141   1.410       .  A
C2140      C2143   1.486       .  S
C2141      C2142   1.407       .  A
C2141     Br2149   1.930       .  S
C2142     Br2153   1.929       .  S
C2143      C2144   1.408       .  A
C2143      C2148   1.409       .  A
C2144      C2145   1.408       .  A
C2144     Br2155   1.930       .  S
C2145      C2146   1.412       .  A
C2145     Br2151   1.930       .  S
C2146      C2147   1.412       .  A
C2147      C2148   1.408       .  A
C2147     Br2156   1.931       .  S
C2148     Br2152   1.930       .  S
C2157      C2158   1.412       .  A
C2157      C2162   1.411       .  A
C2158      C2159   1.410       .  A
C2158     Br2170   1.930       .  S
C2159      C2160   1.410       .  A
C2159     Br2174   1.929       .  S
C2160      C2161   1.410       .  A
C2160      C2163   1.491       .  S
C2161      C2162   1.410       .  A
C2161     Br2169   1.929       .  S
C2162     Br2173   1.929       .  S
C2163      C2164   1.409       .  A
C2163      C2168   1.410       .  A
C2164      C2165   1.409       .  A
C2164     Br2175   1.929       .  S
C2165      C2166   1.412       .  A
C2165     Br2171   1.930       .  S
C2166      C2167   1.412       .  A
C2167      C2168   1.411       .  A
C2167     Br2176   1.929       .  S
C2168     Br2172   1.929       .  S
C2177      C2178   1.413       .  A
C2177      C2182   1.413       .  A
C2178      C2179   1.408       .  A
C2178     Br2190   1.931       .  S
C2179      C2180   1.408       .  A
C2179     Br2194   1.930       .  S
C2180      C2181   1.408       .  A
C2180      C2183   1.486       .  S
C2181      C2182   1.409       .  A
C2181     Br2189   1.930       .  S
C2182     Br2193   1.930       .  S
C2183      C2184   1.409       .  A
C2183      C2188   1.409       .  A
C2184      C2185   1.408       .  A
C2184     Br2195   1.930       .  S
C2185      C2186   1.412       .  A
C2185     Br2191   1.930       .  S
C2186      C2187   1.412       .  A
C2187      C2188   1.409       .  A
C2187     Br2196   1.930       .  S
C2188     Br2192   1.930       .  S
C2197      C2198   1.414       .  A
C2197      C2202   1.417       .  A
C2198      C2199   1.407       .  A
C2198     Br2210   1.932       .  S
C2199      C2200   1.408       .  A
C2199     Br2214   1.931       .  S
C2200      C2201   1.407       .  A
C2200      C2203   1.486       .  S
C2201      C2202   1.408       .  A
C2201     Br2209   1.931       .  S
C2202     Br2213   1.932       .  S
C2203      C2204   1.409       .  A
C2203      C2208   1.407       .  A
C2204      C2205   1.408       .  A
C2204     Br2215   1.932       .  S
C2205      C2206   1.414       .  A
C2205     Br2211   1.931       .  S
C2206      C2207   1.416       .  A
C2207      C2208   1.408       .  A
C2207     Br2216   1.931       .  S
C2208     Br2212   1.930       .  S
C2217      C2218   1.410       .  A
C2217      C2222   1.411       .  A
C2218      C2219   1.406       .  A
C2218     Br2230   1.927       .  S
C2219      C2220   1.408       .  A
C2219     Br2234   1.931       .  S
C2220      C2221   1.410       .  A
C2220      C2223   1.487       .  S
C2221      C2222   1.411       .  A
C2221     Br2229   1.928       .  S
C2222     Br2233   1.928       .  S
C2223      C2224   1.409       .  A
C2223      C2228   1.409       .  A
C2224      C2225   1.408       .  A
C2224     Br2235   1.930       .  S
C2225      C2226   1.413       .  A
C2225     Br2231   1.931       .  S
C2226      C2227   1.413       .  A
C2227      C2228   1.409       .  A
C2227     Br2236   1.930       .  S
C2228     Br2232   1.930       .  S
C2237      C2238   1.416       .  A
C2237      C2242   1.419       .  A
C2238      C2239   1.407       .  A
C2238     Br2250   1.927       .  S
C2239      C2240   1.407       .  A
C2239     Br2254   1.932       .  S
C2240      C2241   1.408       .  A
C2240      C2243   1.489       .  S
C2241      C2242   1.412       .  A
C2241     Br2249   1.930       .  S
C2242     Br2253   1.932       .  S
C2243      C2244   1.408       .  A
C2243      C2248   1.407       .  A
C2244      C2245   1.411       .  A
C2244     Br2255   1.931       .  S
C2245      C2246   1.417       .  A
C2245     Br2251   1.931       .  S
C2246      C2247   1.417       .  A
C2247      C2248   1.409       .  A
C2247     Br2256   1.931       .  S
C2248     Br2252   1.931       .  S
C2257      C2258   1.410       .  A
C2257      C2262   1.411       .  A
C2258      C2259   1.409       .  A
C2258     Br2270   1.930       .  S
C2259      C2260   1.411       .  A
C2259     Br2274   1.930       .  S
C2260      C2261   1.410       .  A
C2260      C2263   1.489       .  S
C2261      C2262   1.409       .  A
C2261     Br2269   1.930       .  S
C2262     Br2273   1.930       .  S
C2263      C2264   1.410       .  A
C2263      C2268   1.411       .  A
C2264      C2265   1.410       .  A
C2264     Br2275   1.930       .  S
C2265      C2266   1.411       .  A
C2265     Br2271   1.929       .  S
C2266      C2267   1.410       .  A
C2267      C2268   1.408       .  A
C2267     Br2276   1.929       .  S
C2268     Br2272   1.930       .  S
C2277      C2278   1.413       .  A
C2277      C2282   1.414       .  A
C2278      C2279   1.408       .  A
C2278     Br2290   1.931       .  S
C2279      C2280   1.410       .  A
C2279     Br2294   1.931       .  S
C2280      C2281   1.409       .  A
C2280      C2283   1.489       .  S
C2281      C2282   1.408       .  A
C2281     Br2289   1.931       .  S
C2282     Br2293   1.931       .  S
C2283      C2284   1.409       .  A
C2283      C2288   1.408   1_545  A
C2284      C2285   1.409   1_545  A
C2284     Br2295   1.933       .  S
C2285      C2286   1.417       .  A
C2285     Br2291   1.932       .  S
C2286      C2287   1.419       .  A
C2287      C2288   1.409       .  A
C2287     Br2296   1.932       .  S
C2288     Br2292   1.932   1_565  S
C2297      C2298   1.411       .  A
C2297      C2302   1.411       .  A
C2298      C2299   1.410       .  A
C2298     Br2310   1.929       .  S
C2299      C2300   1.410       .  A
C2299     Br2314   1.929       .  S
C2300      C2301   1.410       .  A
C2300      C2303   1.490       .  S
C2301      C2302   1.410       .  A
C2301     Br2309   1.930       .  S
C2302     Br2313   1.929       .  S
C2303      C2304   1.410       .  A
C2303      C2308   1.411       .  A
C2304      C2305   1.409       .  A
C2304     Br2315   1.929       .  S
C2305      C2306   1.410       .  A
C2305     Br2311   1.930       .  S
C2306      C2307   1.410       .  A
C2307      C2308   1.410       .  A
C2307     Br2316   1.929       .  S
C2308     Br2312   1.930       .  S
C2317      C2318   1.416       .  A
C2317      C2322   1.416       .  A
C2318      C2319   1.411       .  A
C2318     Br2330   1.930       .  S
C2319      C2320   1.409       .  A
C2319     Br2334   1.931       .  S
C2320      C2321   1.408       .  A
C2320      C2323   1.490       .  S
C2321      C2322   1.410       .  A
C2321     Br2329   1.931       .  S
C2322     Br2333   1.931       .  S
C2323      C2324   1.411       .  A
C2323      C2328   1.411       .  A
C2324      C2325   1.410       .  A
C2324     Br2335   1.929       .  S
C2325      C2326   1.409       .  A
C2325     Br2331   1.929       .  S
C2326      C2327   1.407       .  A
C2327      C2328   1.407       .  A
C2327     Br2336   1.930       .  S
C2328     Br2332   1.929       .  S
C2337      C2338   1.410       .  A
C2337      C2342   1.410       .  A
C2338      C2339   1.410       .  A
C2338     Br2350   1.929       .  S
C2339      C2340   1.410       .  A
C2339     Br2354   1.928       .  S
C2340      C2341   1.409       .  A
C2340      C2343   1.485       .  S
C2341      C2342   1.406       .  A
C2341     Br2349   1.930       .  S
C2342     Br2353   1.930       .  S
C2343      C2344   1.408       .  A
C2343      C2348   1.410       .  A
C2344      C2345   1.407       .  A
C2344     Br2355   1.930       .  S
C2345      C2346   1.412       .  A
C2345     Br2351   1.930       .  S
C2346      C2347   1.410       .  A
C2347      C2348   1.409       .  A
C2347     Br2356   1.929       .  S
C2348     Br2352   1.929       .  S
C2357      C2358   1.411       .  A
C2357      C2362   1.410       .  A
C2358      C2359   1.410       .  A
C2358     Br2370   1.929       .  S
C2359      C2360   1.410       .  A
C2359     Br2374   1.929       .  S
C2360      C2361   1.410       .  A
C2360      C2363   1.490       .  S
C2361      C2362   1.409       .  A
C2361     Br2369   1.929       .  S
C2362     Br2373   1.930       .  S
C2363      C2364   1.410       .  A
C2363      C2368   1.410       .  A
C2364      C2365   1.409       .  A
C2364     Br2375   1.931       .  S
C2365      C2366   1.411       .  A
C2365     Br2371   1.930       .  S
C2366      C2367   1.411       .  A
C2367      C2368   1.411       .  A
C2367     Br2376   1.929       .  S
C2368     Br2372   1.928       .  S
C2377      C2378   1.409       .  A
C2377      C2382   1.409       .  A
C2378      C2379   1.407       .  A
C2378     Br2390   1.928       .  S
C2379      C2380   1.409       .  A
C2379     Br2394   1.930       .  S
C2380      C2381   1.410       .  A
C2380      C2383   1.486       .  S
C2381      C2382   1.410       .  A
C2381     Br2389   1.928       .  S
C2382     Br2393   1.928       .  S
C2383      C2384   1.408       .  A
C2383      C2388   1.408       .  A
C2384      C2385   1.408       .  A
C2384     Br2395   1.930       .  S
C2385      C2386   1.413       .  A
C2385     Br2391   1.930       .  S
C2386      C2387   1.413       .  A
C2387      C2388   1.409       .  A
C2387     Br2396   1.930       .  S
C2388     Br2392   1.929       .  S
C2397      C2398   1.415       .  A
C2397      C2402   1.415       .  A
C2398      C2399   1.408       .  A
C2398     Br2410   1.932       .  S
C2399      C2400   1.407       .  A
C2399     Br2414   1.930       .  S
C2400      C2401   1.409       .  A
C2400      C2403   1.487       .  S
C2401      C2402   1.410       .  A
C2401     Br2409   1.930       .  S
C2402     Br2413   1.931       .  S
C2403      C2404   1.407       .  A
C2403      C2408   1.408       .  A
C2404      C2405   1.408       .  A
C2404     Br2415   1.930       .  S
C2405      C2406   1.417       .  A
C2405     Br2411   1.932       .  S
C2406      C2407   1.415       .  A
C2407      C2408   1.409       .  A
C2407     Br2416   1.931       .  S
C2408     Br2412   1.931       .  S
C2417      C2418   1.413       .  A
C2417      C2422   1.413       .  A
C2418      C2419   1.411       .  A
C2418     Br2430   1.929       .  S
C2419      C2420   1.410       .  A
C2419     Br2434   1.930   1_655  S
C2420      C2421   1.410       .  A
C2420      C2423   1.493   1_655  S
C2421      C2422   1.411       .  A
C2421     Br2429   1.929       .  S
C2422     Br2433   1.930       .  S
C2423      C2424   1.410       .  A
C2423      C2428   1.411       .  A
C2424      C2425   1.411       .  A
C2424     Br2435   1.929       .  S
C2425      C2426   1.410       .  A
C2425     Br2431   1.928       .  S
C2426      C2427   1.411       .  A
C2427      C2428   1.411       .  A
C2427     Br2436   1.928       .  S
C2428     Br2432   1.929       .  S
C2437      C2438   1.411       .  A
C2437      C2442   1.413       .  A
C2438      C2439   1.409       .  A
C2438     Br2450   1.930       .  S
C2439      C2440   1.410       .  A
C2439     Br2454   1.931       .  S
C2440      C2441   1.410       .  A
C2440      C2443   1.490       .  S
C2441      C2442   1.411       .  A
C2441     Br2449   1.929       .  S
C2442     Br2453   1.929       .  S
C2443      C2444   1.411       .  A
C2443      C2448   1.410       .  A
C2444      C2445   1.411       .  A
C2444     Br2455   1.929       .  S
C2445      C2446   1.411       .  A
C2445     Br2451   1.929       .  S
C2446      C2447   1.410       .  A
C2447      C2448   1.408       .  A
C2447     Br2456   1.930       .  S
C2448     Br2452   1.929       .  S
C2457      C2458   1.418       .  A
C2457      C2462   1.419       .  A
C2458      C2459   1.410       .  A
C2458     Br2470   1.933       .  S
C2459      C2460   1.408       .  A
C2459     Br2474   1.931       .  S
C2460      C2461   1.409       .  A
C2460      C2463   1.491       .  S
C2461      C2462   1.410       .  A
C2461     Br2469   1.932       .  S
C2462     Br2473   1.933       .  S
C2463      C2464   1.410       .  A
C2463      C2468   1.409       .  A
C2464      C2465   1.410       .  A
C2464     Br2475   1.931       .  S
C2465      C2466   1.415       .  A
C2465     Br2471   1.931       .  S
C2466      C2467   1.416       .  A
C2467      C2468   1.410       .  A
C2467     Br2476   1.931       .  S
C2468     Br2472   1.931       .  S
C2477      C2478   1.411       .  A
C2477      C2482   1.413       .  A
C2478      C2479   1.409       .  A
C2478     Br2490   1.929       .  S
C2479      C2480   1.410       .  A
C2479     Br2494   1.930       .  S
C2480      C2481   1.408       .  A
C2480      C2483   1.487       .  S
C2481      C2482   1.407       .  A
C2481     Br2489   1.930       .  S
C2482     Br2493   1.932       .  S
C2483      C2484   1.409       .  A
C2483      C2488   1.409       .  A
C2484      C2485   1.410       .  A
C2484     Br2495   1.930       .  S
C2485      C2486   1.413       .  A
C2485     Br2491   1.929       .  S
C2486      C2487   1.412       .  A
C2487      C2488   1.407       .  A
C2487     Br2496   1.931       .  S
C2488     Br2492   1.931       .  S
C2497      C2498   1.413       .  A
C2497      C2502   1.412       .  A
C2498      C2499   1.407       .  A
C2498     Br2510   1.930       .  S
C2499      C2500   1.409       .  A
C2499     Br2514   1.931       .  S
C2500      C2501   1.410       .  A
C2500      C2503   1.488       .  S
C2501      C2502   1.409       .  A
C2501     Br2509   1.930       .  S
C2502     Br2513   1.930       .  S
C2503      C2504   1.408       .  A
C2503      C2508   1.408       .  A
C2504      C2505   1.408       .  A
C2504     Br2515   1.932       .  S
C2505      C2506   1.416       .  A
C2505     Br2511   1.933       .  S
C2506      C2507   1.417       .  A
C2507      C2508   1.410       .  A
C2507     Br2516   1.932       .  S
C2508     Br2512   1.931       .  S
C2517      C2518   1.417       .  A
C2517      C2522   1.416       .  A
C2518      C2519   1.410       .  A
C2518     Br2530   1.931       .  S
C2519      C2520   1.410       .  A
C2519     Br2534   1.932       .  S
C2520      C2521   1.409       .  A
C2520      C2523   1.491       .  S
C2521      C2522   1.409       .  A
C2521     Br2529   1.932       .  S
C2522     Br2533   1.931       .  S
C2523      C2524   1.411       .  A
C2523      C2528   1.411       .  A
C2524      C2525   1.409       .  A
C2524     Br2535   1.930       .  S
C2525      C2526   1.409       .  A
C2525     Br2531   1.926       .  S
C2526      C2527   1.409       .  A
C2527      C2528   1.409       .  A
C2527     Br2536   1.927       .  S
C2528     Br2532   1.931       .  S
C2537      C2538   1.414       .  A
C2537      C2542   1.415       .  A
C2538      C2539   1.410       .  A
C2538     Br2550   1.931       .  S
C2539      C2540   1.409       .  A
C2539     Br2554   1.930       .  S
C2540      C2541   1.409       .  A
C2540      C2543   1.490       .  S
C2541      C2542   1.410       .  A
C2541     Br2549   1.931       .  S
C2542     Br2553   1.930       .  S
C2543      C2544   1.410   1_545  A
C2543      C2548   1.410   1_545  A
C2544      C2545   1.410       .  A
C2544     Br2555   1.929   1_565  S
C2545      C2546   1.411       .  A
C2545     Br2551   1.929       .  S
C2546      C2547   1.410       .  A
C2547      C2548   1.409       .  A
C2547     Br2556   1.929       .  S
C2548     Br2552   1.930       .  S
C2557      C2558   1.420       .  A
C2557      C2562   1.421       .  A
C2558      C2559   1.410       .  A
C2558     Br2570   1.932       .  S
C2559      C2560   1.406       .  A
C2559     Br2574   1.932       .  S
C2560      C2561   1.406       .  A
C2560      C2563   1.489       .  S
C2561      C2562   1.410       .  A
C2561     Br2569   1.932       .  S
C2562     Br2573   1.932       .  S
C2563      C2564   1.410       .  A
C2563      C2568   1.410       .  A
C2564      C2565   1.409       .  A
C2564     Br2575   1.930       .  S
C2565      C2566   1.409       .  A
C2565     Br2571   1.927       .  S
C2566      C2567   1.409       .  A
C2567      C2568   1.409       .  A
C2567     Br2576   1.928       .  S
C2568     Br2572   1.929       .  S
C2577      C2578   1.413       .  A
C2577      C2582   1.412       .  A
C2578      C2579   1.408       .  A
C2578     Br2590   1.930       .  S
C2579      C2580   1.408       .  A
C2579     Br2594   1.930       .  S
C2580      C2581   1.409       .  A
C2580      C2583   1.486       .  S
C2581      C2582   1.409       .  A
C2581     Br2589   1.929       .  S
C2582     Br2593   1.929       .  S
C2583      C2584   1.408       .  A
C2583      C2588   1.408       .  A
C2584      C2585   1.408       .  A
C2584     Br2595   1.930       .  S
C2585      C2586   1.414       .  A
C2585     Br2591   1.930       .  S
C2586      C2587   1.414       .  A
C2587      C2588   1.409       .  A
C2587     Br2596   1.931       .  S
C2588     Br2592   1.930       .  S
C2597      C2598   1.412       .  A
C2597      C2602   1.412       .  A
C2598      C2599   1.409       .  A
C2598     Br2610   1.930       .  S
C2599      C2600   1.409       .  A
C2599     Br2614   1.930       .  S
C2600      C2601   1.410       .  A
C2600      C2603   1.491       .  S
C2601      C2602   1.411       .  A
C2601     Br2609   1.929       .  S
C2602     Br2613   1.929       .  S
C2603      C2604   1.409       .  A
C2603      C2608   1.408       .  A
C2604      C2605   1.411       .  A
C2604     Br2615   1.929       .  S
C2605      C2606   1.415       .  A
C2605     Br2611   1.930       .  S
C2606      C2607   1.417       .  A
C2607      C2608   1.409       .  A
C2607     Br2616   1.933       .  S
C2608     Br2612   1.931       .  S
C2617      C2618   1.415       .  A
C2617      C2622   1.414       .  A
C2618      C2619   1.409       .  A
C2618     Br2630   1.931       .  S
C2619      C2620   1.408       .  A
C2619     Br2634   1.930       .  S
C2620      C2621   1.409       .  A
C2620      C2623   1.488   1_455  S
C2621      C2622   1.409       .  A
C2621     Br2629   1.931   1_455  S
C2622     Br2633   1.930       .  S
C2623      C2624   1.408       .  A
C2623      C2628   1.408       .  A
C2624      C2625   1.409       .  A
C2624     Br2635   1.930   1_655  S
C2625      C2626   1.415       .  A
C2625     Br2631   1.931       .  S
C2626      C2627   1.416       .  A
C2627      C2628   1.409       .  A
C2627     Br2636   1.931       .  S
C2628     Br2632   1.931       .  S
C2637      C2638   1.418       .  A
C2637      C2642   1.416       .  A
C2638      C2639   1.408       .  A
C2638     Br2650   1.933       .  S
C2639      C2640   1.407       .  A
C2639     Br2654   1.932       .  S
C2640      C2641   1.407       .  A
C2640      C2643   1.485       .  S
C2641      C2642   1.408       .  A
C2641     Br2649   1.930       .  S
C2642     Br2653   1.932       .  S
C2643      C2644   1.409       .  A
C2643      C2648   1.408       .  A
C2644      C2645   1.408       .  A
C2644     Br2655   1.930       .  S
C2645      C2646   1.412       .  A
C2645     Br2651   1.930       .  S
C2646      C2647   1.412       .  A
C2647      C2648   1.407       .  A
C2647     Br2656   1.930       .  S
C2648     Br2652   1.930       .  S
C2657      C2658   1.414       .  A
C2657      C2662   1.414       .  A
C2658      C2659   1.408       .  A
C2658     Br2670   1.931       .  S
C2659      C2660   1.409       .  A
C2659     Br2674   1.931       .  S
C2660      C2661   1.408       .  A
C2660      C2663   1.487       .  S
C2661      C2662   1.409       .  A
C2661     Br2669   1.930       .  S
C2662     Br2673   1.930       .  S
C2663      C2664   1.410       .  A
C2663      C2668   1.410       .  A
C2664      C2665   1.407       .  A
C2664     Br2675   1.930       .  S
C2665      C2666   1.410       .  A
C2665     Br2671   1.930       .  S
C2666      C2667   1.411       .  A
C2667      C2668   1.409       .  A
C2667     Br2676   1.929       .  S
C2668     Br2672   1.929       .  S
C2677      C2678   1.413       .  A
C2677      C2682   1.411       .  A
C2678      C2679   1.407       .  A
C2678     Br2690   1.931       .  S
C2679      C2680   1.407       .  A
C2679     Br2694   1.930       .  S
C2680      C2681   1.409       .  A
C2680      C2683   1.482       .  S
C2681      C2682   1.407       .  A
C2681     Br2689   1.931       .  S
C2682     Br2693   1.930       .  S
C2683      C2684   1.408       .  A
C2683      C2688   1.407       .  A
C2684      C2685   1.408       .  A
C2684     Br2695   1.929       .  S
C2685      C2686   1.413       .  A
C2685     Br2691   1.931       .  S
C2686      C2687   1.415       .  A
C2687      C2688   1.406       .  A
C2687     Br2696   1.931       .  S
C2688     Br2692   1.932       .  S
C2697      C2698   1.415       .  A
C2697      C2702   1.415       .  A
C2698      C2699   1.408       .  A
C2698     Br2710   1.931       .  S
C2699      C2700   1.408       .  A
C2699     Br2714   1.930       .  S
C2700      C2701   1.408       .  A
C2700      C2703   1.485       .  S
C2701      C2702   1.408       .  A
C2701     Br2709   1.930       .  S
C2702     Br2713   1.931       .  S
C2703      C2704   1.408   1_455  A
C2703      C2708   1.409   1_455  A
C2704      C2705   1.408       .  A
C2704     Br2715   1.930       .  S
C2705      C2706   1.411       .  A
C2705     Br2711   1.929       .  S
C2706      C2707   1.413       .  A
C2707      C2708   1.409       .  A
C2707     Br2716   1.930       .  S
C2708     Br2712   1.930   1_655  S
C2717      C2718   1.412       .  A
C2717      C2722   1.411       .  A
C2718      C2719   1.407   1_565  A
C2718     Br2730   1.930       .  S
C2719      C2720   1.408       .  A
C2719     Br2734   1.930       .  S
C2720      C2721   1.409   1_545  A
C2720      C2723   1.483       .  S
C2721      C2722   1.407       .  A
C2721     Br2729   1.930       .  S
C2722     Br2733   1.929       .  S
C2723      C2724   1.409       .  A
C2723      C2728   1.409       .  A
C2724      C2725   1.407       .  A
C2724     Br2735   1.930       .  S
C2725      C2726   1.411       .  A
C2725     Br2731   1.930       .  S
C2726      C2727   1.410       .  A
C2727      C2728   1.407       .  A
C2727     Br2736   1.930       .  S
C2728     Br2732   1.930       .  S
C2737      C2738   1.416       .  A
C2737      C2742   1.416       .  A
C2738      C2739   1.409       .  A
C2738     Br2750   1.931       .  S
C2739      C2740   1.408       .  A
C2739     Br2754   1.931       .  S
C2740      C2741   1.409       .  A
C2740      C2743   1.490       .  S
C2741      C2742   1.410       .  A
C2741     Br2749   1.931       .  S
C2742     Br2753   1.931       .  S
C2743      C2744   1.412       .  A
C2743      C2748   1.411       .  A
C2744      C2745   1.410       .  A
C2744     Br2755   1.929       .  S
C2745      C2746   1.408       .  A
C2745     Br2751   1.928       .  S
C2746      C2747   1.409       .  A
C2747      C2748   1.408       .  A
C2747     Br2756   1.930       .  S
C2748     Br2752   1.929       .  S
C2757      C2758   1.413       .  A
C2757      C2762   1.412       .  A
C2758      C2759   1.409       .  A
C2758     Br2770   1.930       .  S
C2759      C2760   1.408       .  A
C2759     Br2774   1.930       .  S
C2760      C2761   1.408       .  A
C2760      C2763   1.484       .  S
C2761      C2762   1.407       .  A
C2761     Br2769   1.930       .  S
C2762     Br2773   1.929       .  S
C2763      C2764   1.407       .  A
C2763      C2768   1.407       .  A
C2764      C2765   1.408       .  A
C2764     Br2775   1.930       .  S
C2765      C2766   1.416       .  A
C2765     Br2771   1.932       .  S
C2766      C2767   1.416       .  A
C2767      C2768   1.408       .  A
C2767     Br2776   1.933       .  S
C2768     Br2772   1.931       .  S
C2777      C2778   1.417       .  A
C2777      C2782   1.416       .  A
C2778      C2779   1.409       .  A
C2778     Br2790   1.931       .  S
C2779      C2780   1.407       .  A
C2779     Br2794   1.931       .  S
C2780      C2781   1.408       .  A
C2780      C2783   1.488   1_556  S
C2781      C2782   1.410       .  A
C2781     Br2789   1.930   1_556  S
C2782     Br2793   1.930       .  S
C2783      C2784   1.408       .  A
C2783      C2788   1.408       .  A
C2784      C2785   1.409       .  A
C2784     Br2795   1.930   1_554  S
C2785      C2786   1.414       .  A
C2785     Br2791   1.930       .  S
C2786      C2787   1.415       .  A
C2787      C2788   1.409       .  A
C2787     Br2796   1.931       .  S
C2788     Br2792   1.930       .  S
C2797      C2798   1.414       .  A
C2797      C2802   1.413       .  A
C2798      C2799   1.408       .  A
C2798     Br2810   1.930       .  S
C2799      C2800   1.408       .  A
C2799     Br2814   1.931       .  S
C2800      C2801   1.408       .  A
C2800      C2803   1.485       .  S
C2801      C2802   1.409       .  A
C2801     Br2809   1.930       .  S
C2802     Br2813   1.930       .  S
C2803      C2804   1.408       .  A
C2803      C2808   1.408       .  A
C2804      C2805   1.408       .  A
C2804     Br2815   1.930       .  S
C2805      C2806   1.415       .  A
C2805     Br2811   1.932       .  S
C2806      C2807   1.415       .  A
C2807      C2808   1.408       .  A
C2807     Br2816   1.932       .  S
C2808     Br2812   1.931       .  S
C2817      C2818   1.411       .  A
C2817      C2822   1.410       .  A
C2818      C2819   1.409       .  A
C2818     Br2830   1.929       .  S
C2819      C2820   1.409       .  A
C2819     Br2834   1.929       .  S
C2820      C2821   1.409       .  A
C2820      C2823   1.487       .  S
C2821      C2822   1.408       .  A
C2821     Br2829   1.929       .  S
C2822     Br2833   1.929       .  S
C2823      C2824   1.408       .  A
C2823      C2828   1.408       .  A
C2824      C2825   1.409       .  A
C2824     Br2835   1.930       .  S
C2825      C2826   1.415       .  A
C2825     Br2831   1.931       .  S
C2826      C2827   1.416       .  A
C2827      C2828   1.409       .  A
C2827     Br2836   1.931       .  S
C2828     Br2832   1.931       .  S
C2837      C2838   1.413       .  A
C2837      C2842   1.413       .  A
C2838      C2839   1.408       .  A
C2838     Br2850   1.931       .  S
C2839      C2840   1.409       .  A
C2839     Br2854   1.931       .  S
C2840      C2841   1.408       .  A
C2840      C2843   1.485       .  S
C2841      C2842   1.408       .  A
C2841     Br2849   1.931       .  S
C2842     Br2853   1.930       .  S
C2843      C2844   1.409       .  A
C2843      C2848   1.408       .  A
C2844      C2845   1.407       .  A
C2844     Br2855   1.931       .  S
C2845      C2846   1.412       .  A
C2845     Br2851   1.931       .  S
C2846      C2847   1.414       .  A
C2847      C2848   1.407       .  A
C2847     Br2856   1.932       .  S
C2848     Br2852   1.930       .  S
C2857      C2858   1.412       .  A
C2857      C2862   1.413       .  A
C2858      C2859   1.408       .  A
C2858     Br2870   1.931       .  S
C2859      C2860   1.409       .  A
C2859     Br2874   1.930       .  S
C2860      C2861   1.410       .  A
C2860      C2863   1.490   1_455  S
C2861      C2862   1.411       .  A
C2861     Br2869   1.929   1_455  S
C2862     Br2873   1.929       .  S
C2863      C2864   1.408       .  A
C2863      C2868   1.410       .  A
C2864      C2865   1.409       .  A
C2864     Br2875   1.930   1_655  S
C2865      C2866   1.413       .  A
C2865     Br2871   1.930       .  S
C2866      C2867   1.412       .  A
C2867      C2868   1.411       .  A
C2867     Br2876   1.929       .  S
C2868     Br2872   1.929       .  S
C2877      C2878   1.415       .  A
C2877      C2882   1.416       .  A
C2878      C2879   1.410       .  A
C2878     Br2890   1.930       .  S
C2879      C2880   1.409       .  A
C2879     Br2894   1.931       .  S
C2880      C2881   1.408       .  A
C2880      C2883   1.489       .  S
C2881      C2882   1.410       .  A
C2881     Br2889   1.930       .  S
C2882     Br2893   1.931       .  S
C2883      C2884   1.408       .  A
C2883      C2888   1.408       .  A
C2884      C2885   1.410       .  A
C2884     Br2895   1.930       .  S
C2885      C2886   1.416       .  A
C2885     Br2891   1.932       .  S
C2886      C2887   1.416       .  A
C2887      C2888   1.409       .  A
C2887     Br2896   1.929       .  S
C2888     Br2892   1.931       .  S
C2897      C2898   1.411       .  A
C2897      C2902   1.411       .  A
C2898      C2899   1.409       .  A
C2898     Br2910   1.929       .  S
C2899      C2900   1.410       .  A
C2899     Br2914   1.929       .  S
C2900      C2901   1.410       .  A
C2900      C2903   1.489       .  S
C2901      C2902   1.410       .  A
C2901     Br2909   1.929       .  S
C2902     Br2913   1.929       .  S
C2903      C2904   1.408       .  A
C2903      C2908   1.409       .  A
C2904      C2905   1.410       .  A
C2904     Br2915   1.930       .  S
C2905      C2906   1.415       .  A
C2905     Br2911   1.930       .  S
C2906      C2907   1.414       .  A
C2907      C2908   1.410       .  A
C2907     Br2916   1.930       .  S
C2908     Br2912   1.930       .  S
C2917      C2918   1.417       .  A
C2917      C2922   1.416       .  A
C2918      C2919   1.411       .  A
C2918     Br2930   1.931       .  S
C2919      C2920   1.408       .  A
C2919     Br2934   1.929       .  S
C2920      C2921   1.408       .  A
C2920      C2923   1.489       .  S
C2921      C2922   1.409       .  A
C2921     Br2929   1.931       .  S
C2922     Br2933   1.932       .  S
C2923      C2924   1.409       .  A
C2923      C2928   1.409       .  A
C2924      C2925   1.410       .  A
C2924     Br2935   1.929       .  S
C2925      C2926   1.413       .  A
C2925     Br2931   1.930       .  S
C2926      C2927   1.413       .  A
C2927      C2928   1.409       .  A
C2927     Br2936   1.930       .  S
C2928     Br2932   1.930       .  S
C2937      C2938   1.417       .  A
C2937      C2942   1.416       .  A
C2938      C2939   1.411       .  A
C2938     Br2950   1.932       .  S
C2939      C2940   1.408   1_554  A
C2939     Br2954   1.930   1_554  S
C2940      C2941   1.408   1_556  A
C2940      C2943   1.491       .  S
C2941      C2942   1.410       .  A
C2941     Br2949   1.931       .  S
C2942     Br2953   1.930       .  S
C2943      C2944   1.410       .  A
C2943      C2948   1.410       .  A
C2944      C2945   1.410       .  A
C2944     Br2955   1.929       .  S
C2945      C2946   1.411       .  A
C2945     Br2951   1.928       .  S
C2946      C2947   1.410       .  A
C2947      C2948   1.410       .  A
C2947     Br2956   1.929       .  S
C2948     Br2952   1.929   1_556  S
C2957      C2958   1.411       .  A
C2957      C2962   1.410       .  A
C2958      C2959   1.409       .  A
C2958     Br2970   1.929       .  S
C2959      C2960   1.409       .  A
C2959     Br2974   1.929       .  S
C2960      C2961   1.409       .  A
C2960      C2963   1.487       .  S
C2961      C2962   1.408       .  A
C2961     Br2969   1.929       .  S
C2962     Br2973   1.929       .  S
C2963      C2964   1.409       .  A
C2963      C2968   1.409   1_455  A
C2964      C2965   1.409   1_455  A
C2964     Br2975   1.929       .  S
C2965      C2966   1.412       .  A
C2965     Br2971   1.930       .  S
C2966      C2967   1.411       .  A
C2967      C2968   1.407       .  A
C2967     Br2976   1.930       .  S
C2968     Br2972   1.930       .  S
C2977      C2978   1.417       .  A
C2977      C2982   1.416       .  A
C2978      C2979   1.407       .  A
C2978     Br2990   1.932       .  S
C2979      C2980   1.406       .  A
C2979     Br2994   1.932       .  S
C2980      C2981   1.407       .  A
C2980      C2983   1.482       .  S
C2981      C2982   1.407       .  A
C2981     Br2989   1.932       .  S
C2982     Br2993   1.931       .  S
C2983      C2984   1.410       .  A
C2983      C2988   1.410       .  A
C2984      C2985   1.406       .  A
C2984     Br2995   1.929       .  S
C2985      C2986   1.407       .  A
C2985     Br2991   1.928       .  S
C2986      C2987   1.408       .  A
C2987      C2988   1.405       .  A
C2987     Br2996   1.930       .  S
C2988     Br2992   1.930       .  S
C2997      C2998   1.412       .  A
C2997      C3002   1.411       .  A
C2998      C2999   1.407       .  A
C2998     Br3010   1.931       .  S
C2999      C3000   1.409       .  A
C2999     Br3014   1.930       .  S
C3000      C3001   1.410       .  A
C3000      C3003   1.488       .  S
C3001      C3002   1.410       .  A
C3001     Br3009   1.929       .  S
C3002     Br3013   1.930       .  S
C3003      C3004   1.408       .  A
C3003      C3008   1.408       .  A
C3004      C3005   1.409       .  A
C3004     Br3015   1.931       .  S
C3005      C3006   1.415       .  A
C3005     Br3011   1.931       .  S
C3006      C3007   1.415       .  A
C3007      C3008   1.410       .  A
C3007     Br3016   1.930       .  S
C3008     Br3012   1.930       .  S
C3017      C3018   1.415       .  A
C3017      C3022   1.415       .  A
C3018      C3019   1.410       .  A
C3018     Br3030   1.930       .  S
C3019      C3020   1.409   1_554  A
C3019     Br3034   1.930   1_554  S
C3020      C3021   1.409   1_556  A
C3020      C3023   1.491       .  S
C3021      C3022   1.410       .  A
C3021     Br3029   1.931       .  S
C3022     Br3033   1.931       .  S
C3023      C3024   1.410       .  A
C3023      C3028   1.411       .  A
C3024      C3025   1.409       .  A
C3024     Br3035   1.930       .  S
C3025      C3026   1.411       .  A
C3025     Br3031   1.930       .  S
C3026      C3027   1.410       .  A
C3027      C3028   1.410       .  A
C3027     Br3036   1.929       .  S
C3028     Br3032   1.929   1_556  S
C3037      C3038   1.415       .  A
C3037      C3042   1.414       .  A
C3038      C3039   1.407       .  A
C3038     Br3050   1.931       .  S
C3039      C3040   1.407       .  A
C3039     Br3054   1.932       .  S
C3040      C3041   1.408       .  A
C3040      C3043   1.483       .  S
C3041      C3042   1.408       .  A
C3041     Br3049   1.931       .  S
C3042     Br3053   1.930       .  S
C3043      C3044   1.408       .  A
C3043      C3048   1.408       .  A
C3044      C3045   1.407       .  A
C3044     Br3055   1.931       .  S
C3045      C3046   1.415       .  A
C3045     Br3051   1.933       .  S
C3046      C3047   1.414       .  A
C3047      C3048   1.406       .  A
C3047     Br3056   1.933       .  S
C3048     Br3052   1.930       .  S
C3057      C3058   1.412       .  A
C3057      C3062   1.413       .  A
C3058      C3059   1.410       .  A
C3058     Br3070   1.929       .  S
C3059      C3060   1.409       .  A
C3059     Br3074   1.929       .  S
C3060      C3061   1.409       .  A
C3060      C3063   1.488       .  S
C3061      C3062   1.408       .  A
C3061     Br3069   1.930       .  S
C3062     Br3073   1.931       .  S
C3063      C3064   1.409       .  A
C3063      C3068   1.408       .  A
C3064      C3065   1.409       .  A
C3064     Br3075   1.931       .  S
C3065      C3066   1.413       .  A
C3065     Br3071   1.930       .  S
C3066      C3067   1.414       .  A
C3067      C3068   1.409       .  A
C3067     Br3076   1.931       .  S
C3068     Br3072   1.929       .  S
C3077      C3078   1.421       .  A
C3077      C3082   1.419       .  A
C3078      C3079   1.413       .  A
C3078     Br3090   1.933       .  S
C3079      C3080   1.408       .  A
C3079     Br3094   1.931       .  S
C3080      C3081   1.408       .  A
C3080      C3083   1.494       .  S
C3081      C3082   1.411       .  A
C3081     Br3089   1.930       .  S
C3082     Br3093   1.933       .  S
C3083      C3084   1.409       .  A
C3083      C3088   1.409       .  A
C3084      C3085   1.411       .  A
C3084     Br3095   1.929       .  S
C3085      C3086   1.415       .  A
C3085     Br3091   1.930       .  S
C3086      C3087   1.414       .  A
C3087      C3088   1.411       .  A
C3087     Br3096   1.930       .  S
C3088     Br3092   1.930       .  S
C3097      C3098   1.416       .  A
C3097      C3102   1.418       .  A
C3098      C3099   1.409       .  A
C3098     Br3110   1.931       .  S
C3099      C3100   1.408       .  A
C3099     Br3114   1.931       .  S
C3100      C3101   1.408       .  A
C3100      C3103   1.489   1_545  S
C3101      C3102   1.410       .  A
C3101     Br3109   1.932       .  S
C3102     Br3113   1.931       .  S
C3103      C3104   1.409       .  A
C3103      C3108   1.410       .  A
C3104      C3105   1.408       .  A
C3104     Br3115   1.930   1_565  S
C3105      C3106   1.414       .  A
C3105     Br3111   1.931       .  S
C3106      C3107   1.414       .  A
C3107      C3108   1.409       .  A
C3107     Br3116   1.931       .  S
C3108     Br3112   1.931       .  S
C3117      C3118   1.413       .  A
C3117      C3122   1.414       .  A
C3118      C3119   1.410       .  A
C3118     Br3130   1.930       .  S
C3119      C3120   1.409       .  A
C3119     Br3134   1.930       .  S
C3120      C3121   1.409       .  A
C3120      C3123   1.490       .  S
C3121      C3122   1.410       .  A
C3121     Br3129   1.930       .  S
C3122     Br3133   1.931       .  S
C3123      C3124   1.410       .  A
C3123      C3128   1.409       .  A
C3124      C3125   1.410       .  A
C3124     Br3135   1.929       .  S
C3125      C3126   1.412       .  A
C3125     Br3131   1.930       .  S
C3126      C3127   1.413       .  A
C3127      C3128   1.410       .  A
C3127     Br3136   1.927       .  S
C3128     Br3132   1.930       .  S
C3137      C3138   1.414       .  A
C3137      C3142   1.414       .  A
C3138      C3139   1.409       .  A
C3138     Br3150   1.931       .  S
C3139      C3140   1.409       .  A
C3139     Br3154   1.931       .  S
C3140      C3141   1.410       .  A
C3140      C3143   1.492       .  S
C3141      C3142   1.412       .  A
C3141     Br3149   1.929       .  S
C3142     Br3153   1.930       .  S
C3143      C3144   1.410       .  A
C3143      C3148   1.410       .  A
C3144      C3145   1.410       .  A
C3144     Br3155   1.930       .  S
C3145      C3146   1.413       .  A
C3145     Br3151   1.930       .  S
C3146      C3147   1.413       .  A
C3147      C3148   1.411       .  A
C3147     Br3156   1.930       .  S
C3148     Br3152   1.929       .  S
C3157      C3158   1.413       .  A
C3157      C3162   1.415       .  A
C3158      C3159   1.410       .  A
C3158     Br3170   1.929       .  S
C3159      C3160   1.409       .  A
C3159     Br3174   1.929       .  S
C3160      C3161   1.408       .  A
C3160      C3163   1.488       .  S
C3161      C3162   1.408       .  A
C3161     Br3169   1.930       .  S
C3162     Br3173   1.931       .  S
C3163      C3164   1.407       .  A
C3163      C3168   1.408       .  A
C3164      C3165   1.408       .  A
C3164     Br3175   1.930       .  S
C3165      C3166   1.416       .  A
C3165     Br3171   1.932       .  S
C3166      C3167   1.418       .  A
C3167      C3168   1.410       .  A
C3167     Br3176   1.932       .  S
C3168     Br3172   1.930       .  S
C3177      C3178   1.417       .  A
C3177      C3182   1.416       .  A
C3178      C3179   1.409       .  A
C3178     Br3190   1.931       .  S
C3179      C3180   1.408       .  A
C3179     Br3194   1.932       .  S
C3180      C3181   1.409       .  A
C3180      C3183   1.490       .  S
C3181      C3182   1.410       .  A
C3181     Br3189   1.931       .  S
C3182     Br3193   1.931       .  S
C3183      C3184   1.410       .  A
C3183      C3188   1.410   1_545  A
C3184      C3185   1.410   1_545  A
C3184     Br3195   1.930       .  S
C3185      C3186   1.414       .  A
C3185     Br3191   1.930       .  S
C3186      C3187   1.413       .  A
C3187      C3188   1.407       .  A
C3187     Br3196   1.931       .  S
C3188     Br3192   1.931       .  S
C3197      C3198   1.413       .  A
C3197      C3202   1.412       .  A
C3198      C3199   1.409       .  A
C3198     Br3210   1.930       .  S
C3199      C3200   1.409   1_554  A
C3199     Br3214   1.930       .  S
C3200      C3201   1.409       .  A
C3200      C3203   1.488       .  S
C3201      C3202   1.408   1_556  A
C3201     Br3209   1.930       .  S
C3202     Br3213   1.931       .  S
C3203      C3204   1.410       .  A
C3203      C3208   1.408       .  A
C3204      C3205   1.409       .  A
C3204     Br3215   1.930       .  S
C3205      C3206   1.412       .  A
C3205     Br3211   1.930       .  S
C3206      C3207   1.415       .  A
C3207      C3208   1.409       .  A
C3207     Br3216   1.931       .  S
C3208     Br3212   1.931       .  S
C3217      C3218   1.416       .  A
C3217      C3222   1.415       .  A
C3218      C3219   1.406       .  A
C3218     Br3230   1.932       .  S
C3219      C3220   1.406       .  A
C3219     Br3234   1.931       .  S
C3220      C3221   1.406       .  A
C3220      C3223   1.481       .  S
C3221      C3222   1.407       .  A
C3221     Br3229   1.932       .  S
C3222     Br3233   1.927       .  S
C3223      C3224   1.406       .  A
C3223      C3228   1.407       .  A
C3224      C3225   1.406       .  A
C3224     Br3235   1.931       .  S
C3225      C3226   1.414       .  A
C3225     Br3231   1.931       .  S
C3226      C3227   1.415       .  A
C3227      C3228   1.407       .  A
C3227     Br3236   1.932       .  S
C3228     Br3232   1.931       .  S
C3237      C3238   1.412       .  A
C3237      C3242   1.411       .  A
C3238      C3239   1.409       .  A
C3238     Br3250   1.930       .  S
C3239      C3240   1.410       .  A
C3239     Br3254   1.929       .  S
C3240      C3241   1.409       .  A
C3240      C3243   1.487       .  S
C3241      C3242   1.407       .  A
C3241     Br3249   1.930       .  S
C3242     Br3253   1.930       .  S
C3243      C3244   1.407       .  A
C3243      C3248   1.407       .  A
C3244      C3245   1.409       .  A
C3244     Br3255   1.932       .  S
C3245      C3246   1.417       .  A
C3245     Br3251   1.929       .  S
C3246      C3247   1.416       .  A
C3247      C3248   1.410       .  A
C3247     Br3256   1.931       .  S
C3248     Br3252   1.930       .  S
C3257      C3258   1.408       .  A
C3257      C3262   1.410       .  A
C3258      C3259   1.407       .  A
C3258     Br3270   1.929       .  S
C3259      C3260   1.409       .  A
C3259     Br3274   1.930       .  S
C3260      C3261   1.409       .  A
C3260      C3263   1.482       .  S
C3261      C3262   1.407       .  A
C3261     Br3269   1.929       .  S
C3262     Br3273   1.929       .  S
C3263      C3264   1.407       .  A
C3263      C3268   1.408       .  A
C3264      C3265   1.406       .  A
C3264     Br3275   1.931       .  S
C3265      C3266   1.414       .  A
C3265     Br3271   1.932       .  S
C3266      C3267   1.415       .  A
C3267      C3268   1.409       .  A
C3267     Br3276   1.931       .  S
C3268     Br3272   1.930       .  S
C3277      C3278   1.413       .  A
C3277      C3282   1.412       .  A
C3278      C3279   1.408       .  A
C3278     Br3290   1.930       .  S
C3279      C3280   1.408       .  A
C3279     Br3294   1.929       .  S
C3280      C3281   1.408       .  A
C3280      C3283   1.485       .  S
C3281      C3282   1.407       .  A
C3281     Br3289   1.931       .  S
C3282     Br3293   1.930       .  S
C3283      C3284   1.407       .  A
C3283      C3288   1.407       .  A
C3284      C3285   1.408       .  A
C3284     Br3295   1.930       .  S
C3285      C3286   1.416       .  A
C3285     Br3291   1.932       .  S
C3286      C3287   1.418       .  A
C3287      C3288   1.408       .  A
C3287     Br3296   1.932       .  S
C3288     Br3292   1.932       .  S
C3297      C3298   1.413       .  A
C3297      C3302   1.414       .  A
C3298      C3299   1.408       .  A
C3298     Br3310   1.931       .  S
C3299      C3300   1.409       .  A
C3299     Br3314   1.931       .  S
C3300      C3301   1.410       .  A
C3300      C3303   1.489       .  S
C3301      C3302   1.410       .  A
C3301     Br3309   1.930       .  S
C3302     Br3313   1.931       .  S
C3303      C3304   1.409       .  A
C3303      C3308   1.410       .  A
C3304      C3305   1.408       .  A
C3304     Br3315   1.931       .  S
C3305      C3306   1.415       .  A
C3305     Br3311   1.931       .  S
C3306      C3307   1.414       .  A
C3307      C3308   1.409       .  A
C3307     Br3316   1.931       .  S
C3308     Br3312   1.931       .  S
C3317      C3318   1.416       .  A
C3317      C3322   1.415       .  A
C3318      C3319   1.409       .  A
C3318     Br3330   1.931       .  S
C3319      C3320   1.408       .  A
C3319     Br3334   1.931       .  S
C3320      C3321   1.409       .  A
C3320      C3323   1.489       .  S
C3321      C3322   1.409       .  A
C3321     Br3329   1.931       .  S
C3322     Br3333   1.931       .  S
C3323      C3324   1.411       .  A
C3323      C3328   1.410       .  A
C3324      C3325   1.409       .  A
C3324     Br3335   1.929       .  S
C3325      C3326   1.410       .  A
C3325     Br3331   1.930       .  S
C3326      C3327   1.410       .  A
C3327      C3328   1.408       .  A
C3327     Br3336   1.928       .  S
C3328     Br3332   1.930       .  S
C3337      C3338   1.414       .  A
C3337      C3342   1.413       .  A
C3338      C3339   1.408       .  A
C3338     Br3350   1.931       .  S
C3339      C3340   1.407       .  A
C3339     Br3354   1.930       .  S
C3340      C3341   1.409       .  A
C3340      C3343   1.487       .  S
C3341      C3342   1.409       .  A
C3341     Br3349   1.930       .  S
C3342     Br3353   1.930       .  S
C3343      C3344   1.410       .  A
C3343      C3348   1.409       .  A
C3344      C3345   1.410       .  A
C3344     Br3355   1.929       .  S
C3345      C3346   1.411       .  A
C3345     Br3351   1.929       .  S
C3346      C3347   1.410       .  A
C3347      C3348   1.408       .  A
C3347     Br3356   1.929       .  S
C3348     Br3352   1.929       .  S
C3357      C3358   1.415       .  A
C3357      C3362   1.414       .  A
C3358      C3359   1.407       .  A
C3358     Br3370   1.931       .  S
C3359      C3360   1.408       .  A
C3359     Br3374   1.932       .  S
C3360      C3361   1.409       .  A
C3360      C3363   1.486       .  S
C3361      C3362   1.409       .  A
C3361     Br3369   1.930       .  S
C3362     Br3373   1.930       .  S
C3363      C3364   1.408       .  A
C3363      C3368   1.409       .  A
C3364      C3365   1.407       .  A
C3364     Br3375   1.931       .  S
C3365      C3366   1.415       .  A
C3365     Br3371   1.933       .  S
C3366      C3367   1.413       .  A
C3367      C3368   1.408       .  A
C3367     Br3376   1.930       .  S
C3368     Br3372   1.930       .  S
C3377      C3378   1.413       .  A
C3377      C3382   1.413       .  A
C3378      C3379   1.409       .  A
C3378     Br3390   1.930       .  S
C3379      C3380   1.408       .  A
C3379     Br3394   1.930       .  S
C3380      C3381   1.409       .  A
C3380      C3383   1.487       .  S
C3381      C3382   1.409       .  A
C3381     Br3389   1.930       .  S
C3382     Br3393   1.930       .  S
C3383      C3384   1.409       .  A
C3383      C3388   1.408       .  A
C3384      C3385   1.409       .  A
C3384     Br3395   1.930       .  S
C3385      C3386   1.412       .  A
C3385     Br3391   1.929       .  S
C3386      C3387   1.413       .  A
C3387      C3388   1.408       .  A
C3387     Br3396   1.931       .  S
C3388     Br3392   1.930       .  S
C3397      C3398   1.413       .  A
C3397      C3402   1.415       .  A
C3398      C3399   1.411       .  A
C3398     Br3410   1.929       .  S
C3399      C3400   1.410       .  A
C3399     Br3414   1.930       .  S
C3400      C3401   1.408       .  A
C3400      C3403   1.491       .  S
C3401      C3402   1.410       .  A
C3401     Br3409   1.931       .  S
C3402     Br3413   1.930       .  S
C3403      C3404   1.409       .  A
C3403      C3408   1.410       .  A
C3404      C3405   1.409       .  A
C3404     Br3415   1.929       .  S
C3405      C3406   1.413       .  A
C3405     Br3411   1.932       .  S
C3406      C3407   1.413       .  A
C3407      C3408   1.410       .  A
C3407     Br3416   1.929       .  S
C3408     Br3412   1.930       .  S
C3417      C3418   1.412       .  A
C3417      C3422   1.411       .  A
C3418      C3419   1.411       .  A
C3418     Br3430   1.930       .  S
C3419      C3420   1.411       .  A
C3419     Br3434   1.929       .  S
C3420      C3421   1.411       .  A
C3420      C3423   1.492       .  S
C3421      C3422   1.408       .  A
C3421     Br3429   1.931       .  S
C3422     Br3433   1.931       .  S
C3423      C3424   1.408       .  A
C3423      C3428   1.410       .  A
C3424      C3425   1.409       .  A
C3424     Br3435   1.932       .  S
C3425      C3426   1.418       .  A
C3425     Br3431   1.932       .  S
C3426      C3427   1.416       .  A
C3427      C3428   1.412       .  A
C3427     Br3436   1.930       .  S
C3428     Br3432   1.931       .  S
C3437      C3438   1.414       .  A
C3437      C3442   1.415       .  A
C3438      C3439   1.409       .  A
C3438     Br3450   1.930       .  S
C3439      C3440   1.409       .  A
C3439     Br3454   1.930       .  S
C3440      C3441   1.408       .  A
C3440      C3443   1.489       .  S
C3441      C3442   1.410       .  A
C3441     Br3449   1.930       .  S
C3442     Br3453   1.931       .  S
C3443      C3444   1.408       .  A
C3443      C3448   1.408       .  A
C3444      C3445   1.410       .  A
C3444     Br3455   1.931       .  S
C3445      C3446   1.416       .  A
C3445     Br3451   1.930       .  S
C3446      C3447   1.416       .  A
C3447      C3448   1.410       .  A
C3447     Br3456   1.931       .  S
C3448     Br3452   1.930       .  S
