geometry optimzed in LAMMPS
_audit_creation_date              2020-11-30 
_audit_creation_method            'lammps2cif' 
_symmetry_space_group_name_H-M    'P1' 
_symmetry_Int_Tables_number       1 
_symmetry_cell_setting            triclinic 
loop_ 
_symmetry_equiv_pos_as_xyz 
  x,y,z 
_cell_length_a                    118.50101676 
_cell_length_b                    118.44137251092911 
_cell_length_c                    118.31401591135106 
_cell_angle_alpha                 89.83446601111017 
_cell_angle_beta                  89.83498399743134 
_cell_angle_gamma                 90.06925026331932 
loop_ 
_atom_site_label 
_atom_site_type_symbol 
_atom_site_fract_x 
_atom_site_fract_y 
_atom_site_fract_z 
_atom_site_charge 
C1          C  0.37728307  0.73354482  0.18693780     0.80000
N2          N  0.38770370  0.72922235  0.18462033    -0.78300
C3          C  0.39588520  0.72904759  0.19267394     0.82500
N4          N  0.39361840  0.73325680  0.20309599    -0.78200
C5          C  0.38335562  0.73777100  0.20556800     0.82600
N6          N  0.37521132  0.73784405  0.19744193    -0.79900
C7          C  0.31582566  0.73019558  0.12686982     0.80000
N8          N  0.30499433  0.73328079  0.12935039    -0.78300
C9          C  0.29673824  0.73265795  0.12136524     0.82500
N10         N  0.29945909  0.72878007  0.11092143    -0.78200
C11         C  0.31011416  0.72557347  0.10828753     0.82600
N12         N  0.31831368  0.72639274  0.11627727    -0.79900
C13         C  0.13949599  0.77182064  0.18706318     0.80000
N14         N  0.12939605  0.77701341  0.18502940    -0.78300
C15         C  0.12126645  0.77745997  0.19322328     0.82500
N16         N  0.12334444  0.77249818  0.20335050    -0.78200
C17         C  0.13336328  0.76749778  0.20556253     0.82600
N18         N  0.14143876  0.76725313  0.19744229    -0.79900
C19         C  0.19989208  0.76960228  0.12620512     0.80000
N20         N  0.19745667  0.77379667  0.11576670    -0.78300
C21         C  0.20543267  0.77399416  0.10750353     0.82500
N22         N  0.21588785  0.76997177  0.10974823    -0.78200
C23         C  0.21859909  0.76597074  0.12015409     0.82600
N24         N  0.21052121  0.76575601  0.12838055    -0.79900
C25         C  0.20286113  0.72621139  0.36096921     0.80000
N26         N  0.21347875  0.73000181  0.35857100    -0.78300
C27         C  0.22179087  0.72919430  0.36642423     0.82500
N28         N  0.21940920  0.72476948  0.37672173    -0.78200
C29         C  0.20887480  0.72116180  0.37936588     0.82600
N30         N  0.20060128  0.72188972  0.37144079    -0.79900
C31         C  0.14040559  0.73056397  0.30245298     0.80000
N32         N  0.12973813  0.72709670  0.30507592    -0.78300
C33         C  0.12120722  0.72796883  0.29744855     0.82500
N34         N  0.12349449  0.73240446  0.28712182    -0.78200
C35         C  0.13403407  0.73588607  0.28429738     0.82600
N36         N  0.14250566  0.73497948  0.29198772    -0.79900
C37         C  0.31725358  0.76960535  0.36459770     0.80000
N38         N  0.30720187  0.76452588  0.36235762    -0.78300
C39         C  0.29870984  0.76460467  0.37010539     0.82500
N40         N  0.30039005  0.76986407  0.38016760    -0.78200
C41         C  0.31032541  0.77508138  0.38255778     0.82600
N42         N  0.31869864  0.77497195  0.37466061    -0.79900
C43         C  0.37751560  0.77250368  0.30356180     0.80000
N44         N  0.37524236  0.76871446  0.29292766    -0.78300
C45         C  0.38305278  0.76979949  0.28452470     0.82500
N46         N  0.39316367  0.77463111  0.28688874    -0.78200
C47         C  0.39564558  0.77838571  0.29743311     0.82600
N48         N  0.38770322  0.77736953  0.30568612    -0.79900
C49         C  0.42222739  0.91549415  0.49654689     0.80000
N50         N  0.43072688  0.91382005  0.48898844    -0.78300
C51         C  0.43944899  0.92124393  0.48835434     0.82500
N52         N  0.43969858  0.93023290  0.49539402    -0.78200
C53         C  0.43142575  0.93186750  0.50311995     0.82600
N54         N  0.42261370  0.92453474  0.50358425    -0.79900
N55         N  0.31962930  0.81665687  0.47731455    -0.27500
N56         N  0.32524014  0.82469252  0.47187747    -0.35300
C57         C  0.32496199  0.82262345  0.46071644     0.00900
C58         C  0.31891345  0.81280672  0.45890470     0.06900
C59         C  0.31573577  0.80918848  0.46964145    -0.06200
H60         H  0.32909658  0.82779537  0.45438827     0.07600
H61         H  0.31084528  0.80173943  0.47170073     0.08800
Cu62       Cu  0.33371296  0.83800430  0.47946070     0.44200
Cu63       Cu  0.31737798  0.81643464  0.49498218     0.42000
Cu64       Cu  0.33255573  0.83889512  0.50935103     0.43900
N65         N  0.34362925  0.84886398  0.48892481    -0.34900
N66         N  0.34336351  0.84894692  0.50006164    -0.29100
C67         C  0.35117395  0.85619968  0.50389064    -0.05200
C68         C  0.35673332  0.86097926  0.49470499     0.07000
C69         C  0.35155760  0.85617494  0.48532501     0.00800
H70         H  0.35283718  0.85764232  0.51275226     0.08400
H71         H  0.35344366  0.85765425  0.47650900     0.07500
N72         N  0.32117157  0.82832380  0.51727994    -0.36300
N73         N  0.31570619  0.81994223  0.51234406    -0.28500
C74         C  0.30904535  0.81489387  0.52015771    -0.03700
C75         C  0.31029495  0.82053194  0.53037706     0.04900
C76         C  0.31810359  0.82892432  0.52818756     0.03000
H77         H  0.30349004  0.80784596  0.51847405     0.08100
H78         H  0.32137153  0.83505256  0.53410281     0.06900
C79         C  0.50757244  0.91123390  0.41181140     0.80000
N80         N  0.51579671  0.91922946  0.41237738    -0.78300
C81         C  0.51555792  0.92723716  0.42058607     0.82500
N82         N  0.50719465  0.92699516  0.42844940    -0.78200
C83         C  0.49899372  0.91899557  0.42800236     0.82600
N84         N  0.49918102  0.91117066  0.41965095    -0.79900
N85         N  0.49273568  0.81322250  0.30854086    -0.27500
N86         N  0.48860777  0.81794119  0.31778328    -0.35300
C87         C  0.47765345  0.81533004  0.31885411     0.00900
C88         C  0.47457713  0.80854698  0.30992439     0.06900
C89         C  0.48436796  0.80735166  0.30350605    -0.06200
H90         H  0.47229046  0.81824249  0.32566130     0.07600
H91         H  0.48528495  0.80277055  0.29566199     0.08800
Cu92       Cu  0.49739497  0.82818869  0.32863449     0.44200
Cu93       Cu  0.50958189  0.81550613  0.30342216     0.42000
Cu94       Cu  0.52531287  0.83534664  0.32173420     0.43900
N95         N  0.50625484  0.84013269  0.33751074    -0.34900
N96         N  0.51666800  0.84307604  0.33485858    -0.29100
C97         C  0.52002627  0.85135484  0.34186092    -0.05200
C98         C  0.51123606  0.85369088  0.34927459     0.07000
C99         C  0.50267705  0.84634996  0.34627753     0.00800
H100        H  0.52826125  0.85529679  0.34160816     0.08400
H101        H  0.49436609  0.84572055  0.35003877     0.07500
N102        N  0.53230219  0.82635678  0.30841910    -0.36300
N103        N  0.52681171  0.81938011  0.30163992    -0.28500
C104        C  0.53419963  0.81519375  0.29401724    -0.03700
C105        C  0.54481833  0.81961872  0.29625144     0.04900
C106        C  0.54322723  0.82668573  0.30538912     0.03000
H107        H  0.53206686  0.80916190  0.28751264     0.08100
H108        H  0.54956355  0.83174876  0.30956584     0.06900
N109        N  0.69730370  0.01840785  0.31492669    -0.27500
N110        N  0.69130550  0.02312638  0.32308774    -0.35300
C111        C  0.69411799  0.03409019  0.32384727     0.00900
C112        C  0.70232685  0.03648496  0.31583440     0.06900
C113        C  0.70414742  0.02630230  0.31032659    -0.06200
H114        H  0.69022843  0.03998036  0.32963937     0.07600
H115        H  0.70966312  0.02483863  0.30318100     0.08800
Cu116      Cu  0.67874700  0.01500333  0.33234077     0.44200
Cu117      Cu  0.69509139  0.00167419  0.30983634     0.42000
Cu118      Cu  0.67009088  0.98814723  0.32190497     0.43900
N119        N  0.66490453  0.00627570  0.33874473    -0.34900
N120        N  0.66163560  0.99641706  0.33473427    -0.29100
C121        C  0.65238777  0.99296299  0.34037181    -0.05200
C122        C  0.64959630  0.00107857  0.34832369     0.07000
C123        C  0.65781585  0.00937176  0.34707730     0.00800
H124        H  0.64800471  0.98511920  0.33874940     0.08400
H125        H  0.65868628  0.01706451  0.35189299     0.07500
N126        N  0.68052327  0.98067490  0.31007507    -0.36300
N127        N  0.68975325  0.98535406  0.30582717    -0.28500
C128        C  0.69477536  0.97787108  0.29888837    -0.03700
C129        C  0.68836457  0.96805288  0.29877945     0.04900
C130        C  0.67937902  0.97020010  0.30591620     0.03000
H131        H  0.70253927  0.97945227  0.29431853     0.08100
H132        H  0.67267404  0.96442202  0.30822742     0.06900
C133        C  0.59125646  0.99595038  0.41087932     0.80000
N134        N  0.59205952  0.00359363  0.41939667    -0.78300
C135        C  0.58505859  0.00312648  0.42851498     0.82500
N136        N  0.57711782  0.99482818  0.42905644    -0.78200
C137        C  0.57620793  0.98709669  0.42063277     0.82600
N138        N  0.58325061  0.98776759  0.41157879    -0.79900
N139        N  0.32910512  0.01648954  0.68488105    -0.27500
N140        N  0.33607826  0.02204229  0.67807764    -0.35300
C141        C  0.33541339  0.03314673  0.68026642     0.00900
C142        C  0.32765405  0.03484402  0.68884965     0.06900
C143        C  0.32388902  0.02405668  0.69165686    -0.06200
H144        H  0.34035556  0.03953260  0.67595599     0.07600
H145        H  0.31770817  0.02189501  0.69805534     0.08800
Cu146      Cu  0.34657321  0.01483117  0.66598361     0.44200
Cu147      Cu  0.32702690  0.99878642  0.68444638     0.42000
Cu148      Cu  0.34430983  0.98519317  0.66293174     0.43900
N149        N  0.35619752  0.00587263  0.65436556    -0.34900
N150        N  0.35512233  0.99484894  0.65313657    -0.29100
C151        C  0.36210944  0.99133265  0.64490483    -0.05200
C152        C  0.36800607  0.00057396  0.64081891     0.07000
C153        C  0.36402662  0.00968073  0.64700385     0.00800
H154        H  0.36292188  0.98266049  0.64217568     0.08400
H155        H  0.36649632  0.01843417  0.64610017     0.07500
N156        N  0.33366779  0.97648799  0.67376775    -0.36300
N157        N  0.32721855  0.98120267  0.68157815    -0.28500
C158        C  0.32122698  0.97295629  0.68676998    -0.03700
C159        C  0.32417590  0.96258655  0.68207335     0.04900
C160        C  0.33204088  0.96526056  0.67382303     0.03000
H161        H  0.31516155  0.97438615  0.69346351     0.08100
H162        H  0.33613039  0.95950710  0.66803642     0.06900
C163        C  0.42467160  0.00189562  0.57689456     0.80000
N164        N  0.42500840  0.99379066  0.56882261    -0.78300
C165        C  0.43266107  0.99435449  0.56028333     0.82500
N166        N  0.44010810  0.00305710  0.55991378    -0.78200
C167        C  0.43987889  0.01124937  0.56791531     0.82600
N168        N  0.43212046  0.01062233  0.57638758    -0.79900
N169        N  0.49095255  0.18657336  0.67818926    -0.27500
N170        N  0.48595003  0.17904750  0.67165810    -0.35300
C171        C  0.47499213  0.17828568  0.67449944     0.00900
C172        C  0.47281237  0.18573775  0.68322163     0.06900
C173        C  0.48318218  0.19084334  0.68536604    -0.06200
H174        H  0.46900373  0.17276398  0.67038912     0.07600
H175        H  0.48499656  0.19710870  0.69173926     0.08800
Cu176      Cu  0.49392164  0.17005989  0.65899224     0.44200
Cu177      Cu  0.50822072  0.19046649  0.67681892     0.42000
Cu178      Cu  0.52331588  0.17462150  0.65472842     0.43900
N179        N  0.50310243  0.16178977  0.64666814    -0.34900
N180        N  0.51404333  0.16330210  0.64515676    -0.29100
C181        C  0.51756606  0.15665607  0.63664307    -0.05200
C182        C  0.50835173  0.15068826  0.63259758     0.07000
C183        C  0.49932418  0.15422883  0.63912509     0.00800
H184        H  0.52615534  0.15633253  0.63354255     0.08400
H185        H  0.49065452  0.15142531  0.63852368     0.07500
N186        N  0.53066808  0.18684935  0.66485355    -0.36300
N187        N  0.52543074  0.19252893  0.67293532    -0.28500
C188        C  0.53294841  0.19952689  0.67785978    -0.03700
C189        C  0.54332584  0.19828746  0.67250679     0.04900
C190        C  0.54151650  0.19013666  0.66436172     0.03000
H191        H  0.53099895  0.20515303  0.68478057     0.08100
H192        H  0.54769543  0.18666248  0.65859593     0.06900
C193        C  0.50487516  0.09127287  0.57157576     0.80000
N194        N  0.51302097  0.09066307  0.56347257    -0.78300
C195        C  0.51342667  0.08179176  0.55621943     0.82500
N196        N  0.50564063  0.07341572  0.55716186    -0.78200
C197        C  0.49738110  0.07395141  0.56512280     0.82600
N198        N  0.49713106  0.08284164  0.57232549    -0.79900
C199        C  0.59699738  0.08043158  0.49618921     0.80000
N200        N  0.58805390  0.08144584  0.50332392    -0.78300
C201        C  0.57913762  0.07426844  0.50262542     0.82500
N202        N  0.57921023  0.06596404  0.49473573    -0.78200
C203        C  0.58819311  0.06466144  0.48769185     0.82600
N204        N  0.59699905  0.07197439  0.48843820    -0.79900
N205        N  0.69838310  0.18052268  0.47812119    -0.27500
N206        N  0.69191237  0.17315963  0.47280493    -0.35300
C207        C  0.69366486  0.17403458  0.46162292     0.00900
C208        C  0.70172134  0.18226985  0.45969340     0.06900
C209        C  0.70450385  0.18625213  0.47037087    -0.06200
H210        H  0.68962884  0.16876217  0.45536584     0.07600
H211        H  0.71057660  0.19276067  0.47238525     0.08800
Cu212      Cu  0.68154280  0.16152337  0.48069281     0.44200
Cu213      Cu  0.69872143  0.18201216  0.49573329     0.42000
Cu214      Cu  0.68502495  0.15845844  0.51044522     0.43900
N215        N  0.67343978  0.14916013  0.49000541    -0.34900
N216        N  0.67496693  0.14777017  0.50097004    -0.29100
C217        C  0.66840131  0.13922096  0.50461036    -0.05200
C218        C  0.66243150  0.13505533  0.49546715     0.07000
C219        C  0.66582743  0.14160108  0.48636003     0.00800
H220        H  0.66764782  0.13660238  0.51334669     0.08400
H221        H  0.66285165  0.14103718  0.47774295     0.07500
N222        N  0.69236533  0.17212597  0.51850314    -0.36300
N223        N  0.69718770  0.18079371  0.51331785    -0.28500
C224        C  0.70036192  0.18838873  0.52116868    -0.03700
C225        C  0.69727881  0.18435222  0.53177623     0.04900
C226        C  0.69234264  0.17396147  0.52970045     0.03000
H227        H  0.70432679  0.19640765  0.51927034     0.08100
H228        H  0.68877721  0.16818559  0.53584233     0.06900
C229        C  0.14111406  0.18924452  0.76624586     0.80000
N230        N  0.14355428  0.19954885  0.76174507    -0.78300
C231        C  0.13592470  0.20807024  0.76227354     0.82500
N232        N  0.12576155  0.20625031  0.76726140    -0.78200
C233        C  0.12310539  0.19598709  0.77166029     0.82600
N234        N  0.13083536  0.18749297  0.77119003    -0.79900
C235        C  0.20268299  0.13005001  0.76909467     0.80000
N236        N  0.20009692  0.11929383  0.77224216    -0.78300
C237        C  0.20801369  0.11098651  0.77204162     0.82500
N238        N  0.21867234  0.11362109  0.76862391    -0.78200
C239        C  0.22143047  0.12429417  0.76532130     0.82600
N240        N  0.21336381  0.13246144  0.76557378    -0.79900
C241        C  0.20092442  0.36452102  0.72663495     0.80000
N242        N  0.21121713  0.36285130  0.73144405    -0.78300
C243        C  0.21917955  0.37111680  0.73114048     0.82500
N244        N  0.21670811  0.38111067  0.72612527    -0.78200
C245        C  0.20650905  0.38301825  0.72129545     0.82600
N246        N  0.19866242  0.37461413  0.72154582    -0.79900
C247        C  0.14020094  0.30409653  0.72444916     0.80000
N248        N  0.14240722  0.29345372  0.72825110    -0.78300
C249        C  0.13451349  0.28514583  0.72748511     0.82500
N250        N  0.12433752  0.28761077  0.72284916    -0.78200
C251        C  0.12193666  0.29815268  0.71907274     0.82600
N252        N  0.12991656  0.30636605  0.71986666    -0.79900
C253        C  0.37702281  0.19273732  0.72283189     0.80000
N254        N  0.37548236  0.20297598  0.72784517    -0.78300
C255        C  0.38396928  0.21074793  0.72805592     0.82500
N256        N  0.39399625  0.20814036  0.72313574    -0.78200
C257        C  0.39568247  0.19802982  0.71808774     0.82600
N258        N  0.38719219  0.19031102  0.71801278    -0.79900
C259        C  0.31769540  0.13089514  0.72644539     0.80000
N260        N  0.30747417  0.13309441  0.73123895    -0.78300
C261        C  0.29932278  0.12503124  0.73160607     0.82500
N262        N  0.30150406  0.11468877  0.72721334    -0.78200
C263        C  0.31170739  0.11215906  0.72264517     0.82600
N264        N  0.31977453  0.12038239  0.72220915    -0.79900
C265        C  0.37632839  0.30674740  0.76676674     0.80000
N266        N  0.38666087  0.30874271  0.77142793    -0.78300
C267        C  0.39452720  0.30037889  0.77203065     0.82500
N268        N  0.39189688  0.28995784  0.76808149    -0.78200
C269        C  0.38160082  0.28774975  0.76355312     0.82600
N270        N  0.37387160  0.29621294  0.76285934    -0.79900
C271        C  0.31549378  0.36704967  0.76744249     0.80000
N272        N  0.31790334  0.37776984  0.77093185    -0.78300
C273        C  0.30960148  0.38574158  0.77162763     0.82500
N274        N  0.29892700  0.38280120  0.76873516    -0.78200
C275        C  0.29638398  0.37223808  0.76517327     0.82600
N276        N  0.30472614  0.36441317  0.76444347    -0.79900
N277        N  0.31965433  0.68512141  0.97783275    -0.27500
N278        N  0.32359127  0.67567783  0.97334310    -0.35300
C279        C  0.31993568  0.67483888  0.96264361     0.00900
C280        C  0.31346661  0.68421119  0.96014737     0.06900
C281        C  0.31346173  0.69057580  0.96997980    -0.06200
H282        H  0.32201807  0.66796987  0.95700376     0.07600
H283        H  0.30918097  0.69851493  0.97137125     0.08800
Cu284      Cu  0.33412717  0.66419198  0.98134612     0.44200
Cu285      Cu  0.32270149  0.69007822  0.99452176     0.42000
Cu286      Cu  0.34206353  0.67127467  0.00917481     0.43900
N287        N  0.34573338  0.65473811  0.99042894    -0.34900
N288        N  0.34879822  0.65753769  0.00076286    -0.29100
C289        C  0.35676398  0.65031487  0.00436777    -0.05200
C290        C  0.35879146  0.64249789  0.99591058     0.07000
C291        C  0.35163740  0.64559611  0.98716989     0.00800
H292        H  0.36085536  0.65078570  0.01251610     0.08400
H293        H  0.35102521  0.64174196  0.97891726     0.07500
N294        N  0.33387526  0.68469585  0.01677392    -0.36300
N295        N  0.32683147  0.69166135  0.01163514    -0.28500
C296        C  0.32275863  0.69901941  0.01932833    -0.03700
C297        C  0.32746851  0.69650078  0.02978949     0.04900
C298        C  0.33444767  0.68737140  0.02776869     0.03000
H299        H  0.31652416  0.70543179  0.01751662     0.08100
H300        H  0.33944338  0.68281870  0.03391198     0.06900
C301        C  0.42078008  0.58417771  0.99488396     0.80000
N302        N  0.42842858  0.58397387  0.00344074    -0.78300
C303        C  0.43700212  0.57633671  0.00339019     0.82500
N304        N  0.43759687  0.56870794  0.99488177    -0.78200
C305        C  0.42997150  0.56871464  0.98636325     0.82600
N306        N  0.42163821  0.57659660  0.98631353    -0.79900
C307        C  0.42947009  0.50614349  0.90453934     0.80000
N308        N  0.43762003  0.49809832  0.90461974    -0.78300
C309        C  0.44508874  0.49736968  0.91328910     0.82500
N310        N  0.44418972  0.50477917  0.92202878    -0.78200
C311        C  0.43598445  0.51280900  0.92213038     0.82600
N312        N  0.42869313  0.51342356  0.91332780    -0.79900
N313        N  0.32384037  0.51752930  0.80869236    -0.27500
N314        N  0.33126362  0.52281337  0.81511803    -0.35300
C315        C  0.32855763  0.53376749  0.81586306     0.00900
C316        C  0.31889869  0.53565261  0.80965985     0.06900
C317        C  0.31617595  0.52517381  0.80510139    -0.06200
H318        H  0.33338209  0.53992201  0.82055844     0.07600
H319        H  0.30907614  0.52323991  0.79971277     0.08800
Cu320      Cu  0.34481324  0.51544176  0.82299569     0.44200
Cu321      Cu  0.32475812  0.50006179  0.80553845     0.42000
Cu322      Cu  0.34774015  0.48598726  0.82124571     0.43900
N323        N  0.35681201  0.50682398  0.83203234    -0.34900
N324        N  0.35785608  0.49574891  0.83160198    -0.29100
C325        C  0.36600465  0.49252895  0.83881535    -0.05200
C326        C  0.37026812  0.50211120  0.84399487     0.07000
C327        C  0.36427169  0.51101417  0.83943207     0.00800
H328        H  0.36859060  0.48387924  0.84019096     0.08400
H329        H  0.36505079  0.51985940  0.84155837     0.07500
N330        N  0.33642959  0.47778142  0.81075380    -0.36300
N331        N  0.32814707  0.48261204  0.80502568    -0.28500
C332        C  0.32260004  0.47450833  0.79924407    -0.03700
C333        C  0.32756149  0.46411039  0.80155505     0.04900
C334        C  0.33635758  0.46662115  0.80879840     0.03000
H335        H  0.31538788  0.47604407  0.79387283     0.08100
H336        H  0.34238103  0.46078590  0.81239196     0.06900
C337        C  0.51208618  0.41922497  0.90760367     0.80000
N338        N  0.50421975  0.42759212  0.90754607    -0.78300
C339        C  0.50474328  0.43619495  0.91513263     0.82500
N340        N  0.51315883  0.43629933  0.92290624    -0.78200
C341        C  0.52112090  0.42806655  0.92300870     0.82600
N342        N  0.52051450  0.41960639  0.91533557    -0.79900
N343        N  0.49116029  0.31601283  0.80781570    -0.27500
N344        N  0.48619252  0.32469412  0.81279725    -0.35300
C345        C  0.47521511  0.32486174  0.80996876     0.00900
C346        C  0.47297759  0.31583086  0.80292532     0.06900
C347        C  0.48332180  0.31038843  0.80173683    -0.06200
H348        H  0.46922568  0.33105735  0.81298239     0.07600
H349        H  0.48506021  0.30297449  0.79671124     0.08800
Cu350      Cu  0.49400980  0.33599874  0.82367720     0.44200
Cu351      Cu  0.50850850  0.31238630  0.80951781     0.42000
Cu352      Cu  0.52254176  0.33003752  0.83033767     0.43900
N353        N  0.50288944  0.34491086  0.83586593    -0.34900
N354        N  0.51342864  0.34247069  0.83844805    -0.29100
C355        C  0.51692446  0.34936194  0.84672487    -0.05200
C356        C  0.50815566  0.35657535  0.84957576     0.07000
C357        C  0.49938845  0.35351043  0.84240686     0.00800
H358        H  0.52527084  0.34909581  0.85038963     0.08400
H359        H  0.49109319  0.35724782  0.84185865     0.07500
N360        N  0.53078489  0.31808180  0.82070351    -0.36300
N361        N  0.52591554  0.31151040  0.81311782    -0.28500
C362        C  0.53393529  0.30484565  0.80848198    -0.03700
C363        C  0.54430555  0.30749444  0.81331164     0.04900
C364        C  0.54188833  0.31586801  0.82105907     0.03000
H365        H  0.53238589  0.29866907  0.80194815     0.08100
H366        H  0.54776860  0.32007400  0.82661877     0.06900
N367        N  0.69631973  0.31773452  0.01155938    -0.27500
N368        N  0.68845358  0.32359140  0.01690064    -0.35300
C369        C  0.69017190  0.32285533  0.02810678     0.00900
C370        C  0.69958266  0.31620310  0.03002245     0.06900
C371        C  0.70329235  0.31316836  0.01930135    -0.06200
H372        H  0.68516846  0.32724924  0.03435702     0.07600
H373        H  0.71061526  0.30811431  0.01726660     0.08800
Cu374      Cu  0.67621717  0.33324544  0.00897168     0.44200
Cu375      Cu  0.69744192  0.31658133  0.99391936     0.42000
Cu376      Cu  0.67977005  0.33666228  0.97910351     0.43900
N377        N  0.66667028  0.34435842  0.99941975    -0.34900
N378        N  0.66820912  0.34579376  0.98845014    -0.29100
C379        C  0.66120800  0.35389818  0.98473803    -0.05200
C380        C  0.65489094  0.35773655  0.99380409     0.07000
C381        C  0.65860154  0.35149594  0.00299542     0.00800
H382        H  0.66076693  0.35679182  0.97606847     0.08400
H383        H  0.65591302  0.35229991  0.01169908     0.07500
N384        N  0.68987772  0.32495205  0.97105092    -0.36300
N385        N  0.69615927  0.31736707  0.97627127    -0.28500
C386        C  0.70079688  0.31051956  0.96843595    -0.03700
C387        C  0.69731046  0.31401765  0.95772439     0.04900
C388        C  0.69041598  0.32323808  0.95986024     0.03000
H389        H  0.70598961  0.30331727  0.97050164     0.08100
H390        H  0.68580290  0.32822979  0.95376807     0.06900
C391        C  0.59794557  0.42098006  0.99121939     0.80000
N392        N  0.58960501  0.42070886  0.98335284    -0.78300
C393        C  0.58165662  0.42896283  0.98300010     0.82500
N394        N  0.58201569  0.43737616  0.99074714    -0.78200
C395        C  0.59024757  0.43778241  0.99868861     0.82600
N396        N  0.59818060  0.42950968  0.99888360    -0.79900
C397        C  0.59323564  0.50336442  0.07734989     0.80000
N398        N  0.58459735  0.51083647  0.07811339    -0.78300
C399        C  0.57670429  0.51144824  0.06982809     0.82500
N400        N  0.57744435  0.50439407  0.06079343    -0.78200
C401        C  0.58611002  0.49692445  0.05995199     0.82600
N402        N  0.59396521  0.49648647  0.06825502    -0.79900
N403        N  0.69211963  0.48296400  0.17985869    -0.27500
N404        N  0.68545549  0.47786728  0.17251430    -0.35300
C405        C  0.68805430  0.46685718  0.17207952     0.00900
C406        C  0.69684027  0.46477882  0.17945332     0.06900
C407        C  0.69921048  0.47521720  0.18426757    -0.06200
H408        H  0.68391468  0.46081962  0.16663448     0.07600
H409        H  0.70551470  0.47704701  0.19059527     0.08800
Cu410      Cu  0.67332146  0.48573534  0.16284752     0.44200
Cu411      Cu  0.69108967  0.50027173  0.18340178     0.42000
Cu412      Cu  0.67276093  0.51562674  0.16390985     0.43900
N413        N  0.66378775  0.49532604  0.15190875    -0.34900
N414        N  0.66373562  0.50645815  0.15214377    -0.29100
C415        C  0.65698215  0.51030853  0.14389111    -0.05200
C416        C  0.65258428  0.50112393  0.13813348     0.07000
C417        C  0.65705304  0.49174870  0.14353624     0.00800
H418        H  0.65540376  0.51915038  0.14222187     0.08400
H419        H  0.65549997  0.48296009  0.14164166     0.07500
N420        N  0.68168251  0.52312813  0.17688960    -0.36300
N421        N  0.68820397  0.51771845  0.18416634    -0.28500
C422        C  0.69255450  0.52530919  0.19145341    -0.03700
C423        C  0.68860811  0.53597008  0.18853971     0.04900
C424        C  0.68178098  0.53420396  0.17926001     0.03000
H425        H  0.69836318  0.52325322  0.19818574     0.08100
H426        H  0.67718005  0.54053463  0.17454668     0.06900
C427        C  0.50438668  0.58348985  0.08155678     0.80000
N428        N  0.51248746  0.57540006  0.08118847    -0.78300
C429        C  0.51254167  0.56748735  0.07290070     0.82500
N430        N  0.50427384  0.56767419  0.06495017    -0.78200
C431        C  0.49607520  0.57570552  0.06519696     0.82600
N432        N  0.49617379  0.58353150  0.07357303    -0.79900
N433        N  0.52573200  0.68375779  0.18246948    -0.27500
N434        N  0.53011377  0.67521678  0.17678001    -0.35300
C435        C  0.54104825  0.67408891  0.17948383     0.00900
C436        C  0.54391344  0.68229580  0.18729069     0.06900
C437        C  0.53392294  0.68831454  0.18893964    -0.06200
H438        H  0.54652551  0.66773252  0.17589846     0.07600
H439        H  0.53268412  0.69561379  0.19425639     0.08800
Cu440      Cu  0.52165328  0.66545697  0.16506960     0.44200
Cu441      Cu  0.50874968  0.68883395  0.18088203     0.42000
Cu442      Cu  0.49332884  0.67245255  0.15965047     0.43900
N443        N  0.51234283  0.65750491  0.15266991    -0.34900
N444        N  0.50178552  0.66025515  0.15047449    -0.29100
C445        C  0.49797251  0.65381082  0.14194819    -0.05200
C446        C  0.50657701  0.64661574  0.13867114     0.07000
C447        C  0.51554101  0.64915558  0.14569717     0.00800
H448        H  0.48950065  0.65415598  0.13858234     0.08400
H449        H  0.52378124  0.64523175  0.14572962     0.07500
N450        N  0.48623965  0.68513998  0.16931926    -0.36300
N451        N  0.49155694  0.69125853  0.17698253    -0.28500
C452        C  0.48411665  0.69870850  0.18139894    -0.03700
C453        C  0.47368691  0.69723504  0.17616708     0.04900
C454        C  0.47543935  0.68845012  0.16867984     0.03000
H455        H  0.48615343  0.70479082  0.18788623     0.08100
H456        H  0.46929668  0.68457952  0.16317132     0.06900
C457        C  0.64032458  0.23119497  0.68596959     0.80000
N458        N  0.64262415  0.23450602  0.69675810    -0.78300
C459        C  0.63434529  0.23473557  0.70476072     0.82500
N460        N  0.62371292  0.23159209  0.70186997    -0.78200
C461        C  0.62120923  0.22836002  0.69117059     0.82600
N462        N  0.62957206  0.22814071  0.68324734    -0.79900
C463        C  0.70202408  0.22662845  0.62624087     0.80000
N464        N  0.70011573  0.22166196  0.61604854    -0.78300
C465        C  0.70859230  0.22062362  0.60834923     0.82500
N466        N  0.71898822  0.22472939  0.61084961    -0.78200
C467        C  0.72108224  0.22986624  0.62088829     0.82600
N468        N  0.71251014  0.23079304  0.62853630    -0.79900
C469        C  0.63974640  0.26778068  0.80296596     0.80000
N470        N  0.62953660  0.27225017  0.80585154    -0.78300
C471        C  0.62105474  0.27295914  0.79816353     0.82500
N472        N  0.62286671  0.26915961  0.78749573    -0.78200
C473        C  0.63293570  0.26463181  0.78439294     0.82600
N474        N  0.64131229  0.26392640  0.79222661    -0.79900
C475        C  0.70145216  0.27197666  0.86247637     0.80000
N476        N  0.69958774  0.27697637  0.87267975    -0.78300
C477        C  0.70798631  0.27769576  0.88048435     0.82500
N478        N  0.71831219  0.27339796  0.87794893    -0.78200
C479        C  0.72032449  0.26825994  0.86788623     0.82600
N480        N  0.71182789  0.26757019  0.86021175    -0.79900
C481        C  0.81722277  0.27004609  0.62681065     0.80000
N482        N  0.81839607  0.27547847  0.61670123    -0.78300
C483        C  0.80973147  0.27604850  0.60920546     0.82500
N484        N  0.79979436  0.27109809  0.61196891    -0.78200
C485        C  0.79832228  0.26563654  0.62195122     0.82600
N486        N  0.80709397  0.26510217  0.62935383    -0.79900
C487        C  0.87867425  0.27280387  0.68635388     0.80000
N488        N  0.87661154  0.26963350  0.69723130    -0.78300
C489        C  0.88480944  0.27044261  0.70517756     0.82500
N490        N  0.89509351  0.27447194  0.70214938    -0.78200
C491        C  0.89737034  0.27770817  0.69138503     0.82600
N492        N  0.88912407  0.27673144  0.68343334    -0.79900
C493        C  0.81773298  0.23266749  0.86186920     0.80000
N494        N  0.81962106  0.22868596  0.87251837    -0.78300
C495        C  0.81110329  0.22812208  0.88025234     0.82500
N496        N  0.80060605  0.23144428  0.87712840    -0.78200
C497        C  0.79854595  0.23554571  0.86660684     0.82600
N498        N  0.80716845  0.23619543  0.85901650    -0.79900
C499        C  0.87970915  0.23528866  0.80253075     0.80000
N500        N  0.87866716  0.24040054  0.79227202    -0.78300
C501        C  0.88717111  0.23995514  0.78454740     0.82500
N502        N  0.89671004  0.23421432  0.78714462    -0.78200
C503        C  0.89796186  0.22907246  0.79730774     0.82600
N504        N  0.88946432  0.22973432  0.80503413    -0.79900
C505        C  0.70185887  0.63197168  0.22420476     0.80000
N506        N  0.69934115  0.62181338  0.21944908    -0.78300
C507        C  0.70703407  0.61329535  0.21946320     0.82500
N508        N  0.71725945  0.61503311  0.22426729    -0.78200
C509        C  0.71999727  0.62509159  0.22901273     0.82600
N510        N  0.71220005  0.63354392  0.22898558    -0.79900
C511        C  0.64188737  0.69299586  0.22116789     0.80000
N512        N  0.63154516  0.69013892  0.21703404    -0.78300
C513        C  0.62298596  0.69777758  0.21671874     0.82500
N514        N  0.62487331  0.70829554  0.22080914    -0.78200
C515        C  0.63501709  0.71131069  0.22514721     0.82600
N516        N  0.64358250  0.70364409  0.22522272    -0.79900
C517        C  0.81622759  0.63259403  0.26743634     0.80000
N518        N  0.81920111  0.62194946  0.27060110    -0.78300
C519        C  0.81157643  0.61338369  0.27052002     0.82500
N520        N  0.80084328  0.61557613  0.26724765    -0.78200
C521        C  0.79762795  0.62614052  0.26417230     0.82600
N522        N  0.80537423  0.63466086  0.26421437    -0.79900
C523        C  0.87654821  0.69333295  0.27027261     0.80000
N524        N  0.88677930  0.69046360  0.27471164    -0.78300
C525        C  0.89514804  0.69829944  0.27545392     0.82500
N526        N  0.89323700  0.70892983  0.27174578    -0.78200
C527        C  0.88317172  0.71201858  0.26730731     0.82600
N528        N  0.87482889  0.70412677  0.26657632    -0.79900
C529        C  0.63967200  0.81022503  0.25688968     0.80000
N530        N  0.64209045  0.79976660  0.25278872    -0.78300
C531        C  0.63388953  0.79177013  0.25211637     0.82500
N532        N  0.62325661  0.79427966  0.25557347    -0.78200
C533        C  0.62066471  0.80461085  0.25979189     0.82600
N534        N  0.62897753  0.81252862  0.26044674    -0.79900
C535        C  0.69894268  0.87175568  0.26261951     0.80000
N536        N  0.69600597  0.88230093  0.26610581    -0.78300
C537        C  0.70395392  0.89049449  0.26727024     0.82500
N538        N  0.71488578  0.88806280  0.26492837    -0.78200
C539        C  0.71804431  0.87756084  0.26164434     0.82600
N540        N  0.71000567  0.86944102  0.26044257    -0.79900
C541        C  0.87702199  0.80999637  0.23292692     0.80000
N542        N  0.88708893  0.81231382  0.22778205    -0.78300
C543        C  0.89528490  0.80429678  0.22712377     0.82500
N544        N  0.89338218  0.79394181  0.23165158    -0.78200
C545        C  0.88350716  0.79156779  0.23696870     0.82600
N546        N  0.87532233  0.79958426  0.23755000    -0.79900
C547        C  0.81662456  0.87078467  0.22895901     0.80000
N548        N  0.81862882  0.88057934  0.22321033    -0.78300
C549        C  0.81042922  0.88851559  0.22207212     0.82500
N550        N  0.80020538  0.88660431  0.22686549    -0.78200
C551        C  0.79790527  0.87691104  0.23258757     0.82600
N552        N  0.80618084  0.86899816  0.23353890    -0.79900
C553        C  0.28175411  0.63188636  0.80052764     0.80000
N554        N  0.27775502  0.63371860  0.78987705    -0.78300
C555        C  0.27855891  0.62555069  0.78182695     0.82500
N556        N  0.28331847  0.61547843  0.78453817    -0.78200
C557        C  0.28719154  0.61346917  0.79513178     0.82600
N558        N  0.28639557  0.62167513  0.80309289    -0.79900
C559        C  0.28299503  0.69233182  0.86168391     0.80000
N560        N  0.28008376  0.70314468  0.85897784    -0.78300
C561        C  0.28032386  0.71142927  0.86690811     0.82500
N562        N  0.28345771  0.70885495  0.87762424    -0.78200
C563        C  0.28634343  0.69816418  0.88054043     0.82600
N564        N  0.28610044  0.68994712  0.87252178    -0.79900
C565        C  0.23870203  0.86590484  0.80174308     0.80000
N566        N  0.23431312  0.87639170  0.80340902    -0.78300
C567        C  0.23423170  0.88422228  0.79495779     0.82500
N568        N  0.23857390  0.88134596  0.78473078    -0.78200
C569        C  0.24306719  0.87096162  0.78290150     0.82600
N570        N  0.24321617  0.86330959  0.79148149    -0.79900
C571        C  0.23992384  0.80630215  0.86346671     0.80000
N572        N  0.24551830  0.79638858  0.86184058    -0.78300
C573        C  0.24683896  0.78888796  0.87049574     0.82500
N574        N  0.24243803  0.79145805  0.88080484    -0.78200
C575        C  0.23689648  0.80132471  0.88258347     0.82600
N576        N  0.23565293  0.80869095  0.87386815    -0.79900
C577        C  0.27761260  0.80705689  0.62771146     0.80000
N578        N  0.27978716  0.81053092  0.61692900    -0.78300
C579        C  0.27935127  0.80311698  0.60818561     0.82500
N580        N  0.27686072  0.79214895  0.61032987    -0.78200
C581        C  0.27476234  0.78847298  0.62099987     0.82600
N582        N  0.27505612  0.79599780  0.62966768    -0.79900
C583        C  0.28557088  0.86622765  0.68919344     0.80000
N584        N  0.28177663  0.86368241  0.69976488    -0.78300
C585        C  0.28230764  0.87135297  0.70823762     0.82500
N586        N  0.28654975  0.88176835  0.70601265    -0.78200
C587        C  0.29030395  0.88462827  0.69552856     0.82600
N588        N  0.28981759  0.87676053  0.68713555    -0.79900
C589        C  0.24240884  0.62798310  0.68482126     0.80000
N590        N  0.24560480  0.63041861  0.69561091    -0.78300
C591        C  0.24509254  0.62240986  0.70387383     0.82500
N592        N  0.24149899  0.61187175  0.70118124    -0.78200
C593        C  0.23836149  0.60918869  0.69048826     0.82600
N594        N  0.23872464  0.61735729  0.68236081    -0.79900
C595        C  0.24201201  0.68984940  0.62488498     0.80000
N596        N  0.24616647  0.70026769  0.62753974    -0.78300
C597        C  0.24592175  0.70884062  0.61984750     0.82500
N598        N  0.24132759  0.70690701  0.60954424    -0.78200
C599        C  0.23699731  0.69670191  0.60677975     0.82600
N600        N  0.23742383  0.68815705  0.61446831    -0.79900
C601        C  0.00300094  0.91165883  0.07751016     0.80000
N602        N  0.99471954  0.91953532  0.07684300    -0.78300
C603        C  0.99441357  0.92702917  0.06813513     0.82500
N604        N  0.00246089  0.92646232  0.05993631    -0.78200
C605        C  0.01080502  0.91862563  0.06051628     0.82600
N606        N  0.01105988  0.91127876  0.06933748    -0.79900
N607        N  0.99038288  0.81848087  0.18728553    -0.27500
N608        N  0.98463521  0.82458227  0.17990201    -0.35300
C609        C  0.97375545  0.82497529  0.18297773     0.00900
C610        C  0.97236457  0.81899591  0.19292994     0.06900
C611        C  0.98310882  0.81485650  0.19536519    -0.06200
H612        H  0.96732927  0.82933101  0.17818954     0.07600
H613        H  0.98546559  0.80968368  0.20252675     0.08800
Cu614      Cu  0.99114667  0.83267691  0.16590399     0.44200
Cu615      Cu  0.00791731  0.81555673  0.18558760     0.42000
Cu616      Cu  0.02025730  0.83033503  0.16117121     0.43900
N617        N  0.99917569  0.84144219  0.15316620    -0.34900
N618        N  0.01013544  0.84059349  0.15144757    -0.29100
C619        C  0.01313131  0.84744579  0.14289845    -0.05200
C620        C  0.00354278  0.85285875  0.13899403     0.07000
C621        C  0.99483517  0.84886715  0.14575734     0.00800
H622        H  0.02167393  0.84844303  0.13980002     0.08400
H623        H  0.98605708  0.85134170  0.14553518     0.07500
N624        N  0.02924643  0.81996844  0.17187420    -0.36300
N625        N  0.02508543  0.81451353  0.18073298    -0.28500
C626        C  0.03357220  0.80862634  0.18558198    -0.03700
C627        C  0.04349470  0.81061944  0.17953608     0.04900
C628        C  0.04030715  0.81776583  0.17086833     0.03000
H629        H  0.03263591  0.80338507  0.19302912     0.08100
H630        H  0.04560704  0.82111633  0.16419740     0.06900
C631        C  0.09035007  0.91238325  0.99556813     0.80000
N632        N  0.09114906  0.92114771  0.98815254    -0.78300
C633        C  0.08354209  0.92973308  0.98829872     0.82500
N634        N  0.07510080  0.92956574  0.99611044    -0.78200
C635        C  0.07418859  0.92089806  0.00361007     0.82600
N636        N  0.08181545  0.91236016  0.00326045    -0.79900
N637        N  0.19624926  0.81653286  0.97686529    -0.27500
N638        N  0.18947785  0.82372667  0.97165997    -0.35300
C639        C  0.19244330  0.82448166  0.96071918     0.00900
C640        C  0.20154651  0.81744331  0.95882588     0.06900
C641        C  0.20367966  0.81244776  0.96924317    -0.06200
H642        H  0.18811654  0.82964826  0.95455132     0.07600
H643        H  0.21019697  0.80634918  0.97114651     0.08800
Cu644      Cu  0.17617129  0.83212455  0.97920797     0.44200
Cu645      Cu  0.19488431  0.81269712  0.99414558     0.42000
Cu646      Cu  0.17026437  0.82551417  0.00784247     0.43900
N647        N  0.16297540  0.83936634  0.98803464    -0.34900
N648        N  0.16069571  0.83685134  0.99866671    -0.29100
C649        C  0.15192759  0.84313906  0.00217500    -0.05200
C650        C  0.14847347  0.84994495  0.99327288     0.07000
C651        C  0.15574325  0.84732671  0.98445807     0.00800
H652        H  0.14846955  0.84290969  0.01064494     0.08400
H653        H  0.15603734  0.85114640  0.97615187     0.07500
N654        N  0.18181657  0.81532765  0.01602916    -0.36300
N655        N  0.19084625  0.81073556  0.01132494    -0.28500
C656        C  0.19642828  0.80481631  0.01931472    -0.03700
C657        C  0.19058709  0.80574013  0.02949063     0.04900
C658        C  0.18138393  0.81245289  0.02699855     0.03000
H659        H  0.20405314  0.80005067  0.01776436     0.08100
H660        H  0.17483449  0.81515072  0.03277611     0.06900
C661        C  0.91869106  0.99557266  0.07540673     0.80000
N662        N  0.91856442  0.00393338  0.06754856    -0.78300
C663        C  0.92640758  0.00436773  0.05919746     0.82500
N664        N  0.93445611  0.99622679  0.05868898    -0.78200
C665        C  0.93473798  0.98779983  0.06649835     0.82600
N666        N  0.92682343  0.98752667  0.07484015    -0.79900
N667        N  0.82335849  0.98371061  0.18248955    -0.27500
N668        N  0.83003385  0.97853057  0.17518132    -0.35300
C669        C  0.83002820  0.96739368  0.17731116     0.00900
C670        C  0.82312197  0.96530925  0.18649183     0.06900
C671        C  0.81902430  0.97586691  0.18961692    -0.06200
H672        H  0.83489168  0.96125587  0.17261543     0.07600
H673        H  0.81322887  0.97767657  0.19645447     0.08800
Cu674      Cu  0.83945449  0.98647659  0.16280144     0.44200
Cu675      Cu  0.82063974  0.00128855  0.18188370     0.42000
Cu676      Cu  0.84053898  0.01617534  0.16276016     0.43900
N677        N  0.85012202  0.99545862  0.15230102    -0.34900
N678        N  0.85087607  0.00657237  0.15250964    -0.29100
C679        C  0.85869643  0.00993639  0.14494113    -0.05200
C680        C  0.86298570  0.00041454  0.13970310     0.07000
C681        C  0.85731752  0.99140663  0.14453233     0.00800
H682        H  0.86087236  0.01864214  0.14318630     0.08400
H683        H  0.85840147  0.98255067  0.14259961     0.07500
N684        N  0.82769434  0.02388495  0.17172213    -0.36300
N685        N  0.82031074  0.01875941  0.17842176    -0.28500
C686        C  0.81306623  0.02660155  0.18243069    -0.03700
C687        C  0.81612570  0.03709726  0.17807967     0.04900
C688        C  0.82543039  0.03497850  0.17137118     0.03000
H689        H  0.80621658  0.02482482  0.18823294     0.08100
H690        H  0.83019414  0.04107293  0.16646886     0.06900
C691        C  0.92258870  0.08526889  0.99518318     0.80000
N692        N  0.92209073  0.07668198  0.00281029    -0.78300
C693        C  0.93014014  0.06853033  0.00295222     0.82500
N694        N  0.93860277  0.06891190  0.99520671    -0.78200
C695        C  0.93923308  0.07738665  0.98747175     0.82600
N696        N  0.93115732  0.08554754  0.98750275    -0.79900
N697        N  0.82238714  0.18723833  0.97545134    -0.27500
N698        N  0.82954789  0.18044196  0.97021213    -0.35300
C699        C  0.82986667  0.18310412  0.95916023     0.00900
C700        C  0.82260821  0.19203806  0.95722277     0.06900
C701        C  0.81806907  0.19450822  0.96777573    -0.06200
H702        H  0.83518538  0.17894758  0.95300262     0.07600
H703        H  0.81200660  0.20105183  0.96970375     0.08800
Cu704      Cu  0.83915385  0.16801946  0.97802747     0.44200
Cu705      Cu  0.81893713  0.18622519  0.99290826     0.42000
Cu706      Cu  0.83733900  0.16679572  0.00805999     0.43900
N707        N  0.84881144  0.15702982  0.98769051    -0.34900
N708        N  0.84824139  0.15672414  0.99883412    -0.29100
C709        C  0.85556143  0.14897635  0.00273067    -0.05200
C710        C  0.86096195  0.14406665  0.99358393     0.07000
C711        C  0.85649034  0.14944011  0.98417408     0.00800
H712        H  0.85676612  0.14697546  0.01157309     0.08400
H713        H  0.85873745  0.14806148  0.97542015     0.07500
N714        N  0.82506786  0.17653151  0.01581692    -0.36300
N715        N  0.81814061  0.18346555  0.01049385    -0.28500
C716        C  0.81109623  0.18808832  0.01819218    -0.03700
C717        C  0.81380697  0.18394972  0.02891596     0.04900
C718        C  0.82271818  0.17662487  0.02692450     0.03000
H719        H  0.80445618  0.19394986  0.01604556     0.08100
H720        H  0.82725439  0.17165956  0.03309905     0.06900
C721        C  0.00974816  0.08537140  0.91271242     0.80000
N722        N  0.00135139  0.08476862  0.92056543    -0.78300
C723        C  0.00116903  0.07636678  0.92842563     0.82500
N724        N  0.00941400  0.06839557  0.92830342    -0.78200
C725        C  0.01788427  0.06886567  0.92054299     0.82600
N726        N  0.01798299  0.07739561  0.91284449    -0.79900
N727        N  0.99229214  0.19069082  0.81440177    -0.27500
N728        N  0.98715060  0.18414097  0.82189781    -0.35300
C729        C  0.97605167  0.18635238  0.82187231     0.00900
C730        C  0.97398205  0.19478243  0.81408114     0.06900
C731        C  0.98448118  0.19734956  0.80946614    -0.06200
H732        H  0.96993524  0.18218973  0.82726905     0.07600
H733        H  0.98629636  0.20349899  0.80293082     0.08800
Cu734      Cu  0.99490817  0.17240901  0.83217703     0.44200
Cu735      Cu  0.00971383  0.19002153  0.81125525     0.42000
Cu736      Cu  0.02412127  0.16885090  0.82884263     0.43900
N737        N  0.00384962  0.16076723  0.84154062    -0.34900
N738        N  0.01480334  0.15931674  0.84024621    -0.29100
C739        C  0.01828128  0.15118819  0.84738915    -0.05200
C740        C  0.00902304  0.14729862  0.85349757     0.07000
C741        C  0.00002476  0.15367625  0.84956950     0.00800
H742        H  0.02691805  0.14832507  0.84806852     0.08400
H743        H  0.99134405  0.15334994  0.85238219     0.07500
N744        N  0.03206864  0.17904788  0.81697623    -0.36300
N745        N  0.02707281  0.18661416  0.81043758    -0.28500
C746        C  0.03493378  0.19125861  0.80355142    -0.03700
C747        C  0.04533629  0.18637449  0.80593309     0.04900
C748        C  0.04312488  0.17874640  0.81451871     0.03000
H749        H  0.03319698  0.19770613  0.79730355     0.08100
H750        H  0.04910509  0.17314810  0.81854950     0.06900
C751        C  0.09423634  0.99979762  0.91337651     0.80000
N752        N  0.08628859  0.00808902  0.91330834    -0.78300
C753        C  0.07865623  0.00897751  0.92186573     0.82500
N754        N  0.07893061  0.00136117  0.93045333    -0.78200
C755        C  0.08673983  0.99298246  0.93065317     0.82600
N756        N  0.09444776  0.99231482  0.92213539    -0.79900
N757        N  0.19584605  0.97943092  0.81165867    -0.27500
N758        N  0.18951965  0.97423157  0.81931704    -0.35300
C759        C  0.19199070  0.96316687  0.81933473     0.00900
C760        C  0.20022521  0.96115129  0.81128067     0.06900
C761        C  0.20255510  0.97169653  0.80664235    -0.06200
H762        H  0.18804207  0.95702972  0.82486373     0.07600
H763        H  0.20853651  0.97356803  0.79996824     0.08800
Cu764      Cu  0.17753241  0.98185609  0.82962519     0.44200
Cu765      Cu  0.19482400  0.99682743  0.80826945     0.42000
Cu766      Cu  0.17446254  0.01134326  0.82626881     0.43900
N767        N  0.16608292  0.99114841  0.83912483    -0.34900
N768        N  0.16510402  0.00218727  0.83794160    -0.29100
C769        C  0.15727064  0.00600311  0.84523027    -0.05200
C770        C  0.15307681  0.99691258  0.85135158     0.07000
C771        C  0.15881873  0.98760374  0.84716923     0.00800
H772        H  0.15475835  0.01474987  0.84592712     0.08400
H773        H  0.15791013  0.97892373  0.84989976     0.07500
N774        N  0.18389846  0.01924870  0.81376734    -0.36300
N775        N  0.19131158  0.01417934  0.80713412    -0.28500
C776        C  0.19585302  0.02197652  0.80011118    -0.03700
C777        C  0.19102503  0.03245334  0.80242550     0.04900
C778        C  0.18351324  0.03028294  0.81116541     0.03000
H779        H  0.20233198  0.02014170  0.79393644     0.08100
H780        H  0.17809142  0.03629420  0.81538067     0.06900
C781        C  0.73712512  0.19430771  0.36267301     0.80000
N782        N  0.74203969  0.20458796  0.36096323    -0.78300
C783        C  0.74252613  0.21223354  0.36952426     0.82500
N784        N  0.73809981  0.20945812  0.37976726    -0.78200
C785        C  0.73334721  0.19918423  0.38169467     0.82600
N786        N  0.73296182  0.19163908  0.37307292    -0.79900
C787        C  0.73609134  0.13346350  0.30228003     0.80000
N788        N  0.73992603  0.13526045  0.29155167    -0.78300
C789        C  0.73936055  0.12700972  0.28359273     0.82500
N790        N  0.73493044  0.11682286  0.28647880    -0.78200
C791        C  0.73109916  0.11480440  0.29711022     0.82600
N792        N  0.73177779  0.12311431  0.30499745    -0.79900
C793        C  0.77468691  0.19285820  0.12525067     0.80000
N794        N  0.77903805  0.19027013  0.11488577    -0.78300
C795        C  0.77909884  0.19806699  0.10640064     0.82500
N796        N  0.77489510  0.20852393  0.10840880    -0.78200
C797        C  0.77061551  0.21128622  0.11868824     0.82600
N798        N  0.77055826  0.20342035  0.12708179    -0.79900
C799        C  0.77878126  0.13304965  0.18714733     0.80000
N800        N  0.77478741  0.13528424  0.19775688    -0.78300
C801        C  0.77538152  0.12738117  0.20613903     0.82500
N802        N  0.78009948  0.11721848  0.20373963    -0.78200
C803        C  0.78423875  0.11482180  0.19334076     0.82600
N804        N  0.78347696  0.12276690  0.18506995    -0.79900
C805        C  0.73641942  0.36961494  0.18714538     0.80000
N806        N  0.73170173  0.37987951  0.18497512    -0.78300
C807        C  0.73106457  0.38784343  0.19320302     0.82500
N808        N  0.73543488  0.38556153  0.20353156    -0.78200
C809        C  0.74032572  0.37547062  0.20592308     0.82600
N810        N  0.74073066  0.36749281  0.19764027    -0.79900
C811        C  0.73992905  0.31036417  0.12495587     0.80000
N812        N  0.73635587  0.31254965  0.11421951    -0.78300
C813        C  0.73746650  0.30471129  0.10588533     0.82500
N814        N  0.74222312  0.29463421  0.10843928    -0.78200
C815        C  0.74588153  0.29227949  0.11901509     0.82600
N816        N  0.74465245  0.30011604  0.12730845    -0.79900
C817        C  0.77999895  0.36850317  0.30176702     0.80000
N818        N  0.77586659  0.36647057  0.29123467    -0.78300
C819        C  0.77674944  0.37446343  0.28298046     0.82500
N820        N  0.78172025  0.38451817  0.28538760    -0.78200
C821        C  0.78576225  0.38668870  0.29588535     0.82600
N822        N  0.78474850  0.37869074  0.30408577    -0.79900
C823        C  0.77555742  0.31087287  0.36536628     0.80000
N824        N  0.77198888  0.30016239  0.36307446    -0.78300
C825        C  0.77287124  0.29178782  0.37093938     0.82500
N826        N  0.77745280  0.29420919  0.38118188    -0.78200
C827        C  0.78097316  0.30482736  0.38365586     0.82600
N828        N  0.77997830  0.31308029  0.37573241    -0.79900
N829        N  0.02661812  0.68776966  0.31252627    -0.27500
N830        N  0.03185156  0.68123237  0.31992511    -0.35300
C831        C  0.04289595  0.68371241  0.31994413     0.00900
C832        C  0.04487983  0.69220599  0.31216465     0.06900
C833        C  0.03433023  0.69466250  0.30766824    -0.06200
H834        H  0.04898694  0.67977588  0.32548484     0.07600
H835        H  0.03241143  0.70099786  0.30135732     0.08800
Cu836      Cu  0.02423812  0.66955379  0.33046792     0.44200
Cu837      Cu  0.00914205  0.68701137  0.30978733     0.42000
Cu838      Cu  0.99464919  0.66953253  0.33110457     0.43900
N839        N  0.01523910  0.65994655  0.34196423    -0.34900
N840        N  0.00411816  0.66015904  0.34240401    -0.29100
C841        C  0.00057143  0.65326485  0.35073972    -0.05200
C842        C  0.00995774  0.64847212  0.35579959     0.07000
C843        C  0.01911708  0.65285644  0.34994983     0.00800
H844        H  0.99180738  0.65165366  0.35276205     0.08400
H845        H  0.02794386  0.65106162  0.35141341     0.07500
N846        N  0.98665866  0.67786947  0.31797841    -0.36300
N847        N  0.99167429  0.68406939  0.31011238    -0.28500
C848        C  0.98374053  0.68777668  0.30282381    -0.03700
C849        C  0.97327931  0.68361831  0.30623721     0.04900
C850        C  0.97553203  0.67750049  0.31595384     0.03000
H851        H  0.98547828  0.69297904  0.29549128     0.08100
H852        H  0.96955421  0.67303197  0.32124498     0.06900
C853        C  0.00996344  0.58413797  0.41179096     0.80000
N854        N  0.00245209  0.57550844  0.41097277    -0.78300
C855        C  0.00323614  0.56634625  0.41783797     0.82500
N856        N  0.01161173  0.56581624  0.42560996    -0.78200
C857        C  0.01911167  0.57441330  0.42666397     0.82600
N858        N  0.01821525  0.58357161  0.41975616    -0.79900
N859        N  0.81989863  0.48300990  0.31295498    -0.27500
N860        N  0.82657556  0.47798798  0.32036123    -0.35300
C861        C  0.82396187  0.46697605  0.32093334     0.00900
C862        C  0.81519747  0.46480001  0.31355769     0.06900
C863        C  0.81281273  0.47520347  0.30862355    -0.06200
H864        H  0.82834096  0.46091962  0.32618722     0.07600
H865        H  0.80667154  0.47690685  0.30209324     0.08800
Cu866      Cu  0.83968360  0.48568386  0.32896789     0.44200
Cu867      Cu  0.82143874  0.50016945  0.30880111     0.42000
Cu868      Cu  0.84693398  0.51343203  0.32071003     0.43900
N869        N  0.85361205  0.49402639  0.33542140    -0.34900
N870        N  0.85641163  0.50435012  0.33226481    -0.29100
C871        C  0.86567815  0.50757722  0.33796297    -0.05200
C872        C  0.86893616  0.49879992  0.34502725     0.07000
C873        C  0.86101284  0.49036763  0.34319997     0.00800
H874        H  0.86967386  0.51575292  0.33710187     0.08400
H875        H  0.86047545  0.48225213  0.34737785     0.07500
N876        N  0.83541539  0.52160918  0.31040144    -0.36300
N877        N  0.82608904  0.51708112  0.30625193    -0.28500
C878        C  0.82058346  0.52504540  0.30023907    -0.03700
C879        C  0.82679376  0.53499101  0.30059574     0.04900
C880        C  0.83613039  0.53243854  0.30707998     0.03000
H881        H  0.81274208  0.52364402  0.29579753     0.08100
H882        H  0.84292334  0.53810064  0.30934909     0.06900
C883        C  0.92877145  0.49783127  0.40595253     0.80000
N884        N  0.93799755  0.50464135  0.40573852    -0.78300
C885        C  0.94590888  0.50410796  0.41398458     0.82500
N886        N  0.94457699  0.49663412  0.42259288    -0.78200
C887        C  0.93545920  0.48970172  0.42295579     0.82600
N888        N  0.92752452  0.49040064  0.41469192    -0.79900
C889        C  0.92285066  0.41819706  0.49603499     0.80000
N890        N  0.93102038  0.41854616  0.50407030    -0.78300
C891        C  0.93885651  0.42695241  0.50404782     0.82500
N892        N  0.93852134  0.43500811  0.49583242    -0.78200
C893        C  0.93041080  0.43469933  0.48773678     0.82600
N894        N  0.92267905  0.42624123  0.48784554    -0.79900
N895        N  0.81802847  0.32135947  0.47923300    -0.27500
N896        N  0.82590754  0.32722438  0.47386173    -0.35300
C897        C  0.82347528  0.32761617  0.46279501     0.00900
C898        C  0.81347162  0.32186358  0.46093023     0.06900
C899        C  0.81031428  0.31791394  0.47158810    -0.06200
H900        H  0.82875184  0.33176511  0.45657807     0.07600
H901        H  0.80293774  0.31291626  0.47363950     0.08800
Cu902      Cu  0.83970292  0.33495546  0.48130205     0.44200
Cu903      Cu  0.81845759  0.31823422  0.49675065     0.42000
Cu904      Cu  0.84220309  0.33232230  0.51069654     0.43900
N905        N  0.85149741  0.34403404  0.49044046    -0.34900
N906        N  0.85222430  0.34322474  0.50153518    -0.29100
C907        C  0.86011884  0.35045296  0.50527580    -0.05200
C908        C  0.86470347  0.35598913  0.49602831     0.07000
C909        C  0.85901270  0.35172963  0.48675202     0.00800
H910        H  0.86238094  0.35155632  0.51405744     0.08400
H911        H  0.86005563  0.35422882  0.47800963     0.07500
N912        N  0.83109047  0.32157677  0.51871202    -0.36300
N913        N  0.82233462  0.31651069  0.51401690    -0.28500
C914        C  0.81695496  0.31044146  0.52208848    -0.03700
C915        C  0.82258546  0.31188201  0.53230591     0.04900
C916        C  0.83157632  0.31886783  0.52969780     0.03000
H917        H  0.80944879  0.30544560  0.52065783     0.08100
H918        H  0.83809357  0.32183835  0.53533277     0.06900
N919        N  0.99392221  0.31127633  0.67326665    -0.27500
N920        N  0.98892012  0.31857584  0.66646462    -0.35300
C921        C  0.97779432  0.31644687  0.66624580     0.00900
C922        C  0.97556495  0.30728329  0.67317218     0.06900
C923        C  0.98602225  0.30419451  0.67749818    -0.06200
H924        H  0.97174937  0.32124423  0.66136666     0.07600
H925        H  0.98772548  0.29750041  0.68349012     0.08800
Cu926      Cu  0.99724246  0.33117443  0.65766344     0.44200
Cu927      Cu  0.01127147  0.31195048  0.67652858     0.42000
Cu928      Cu  0.02719501  0.33284575  0.65945064     0.43900
N929        N  0.00674950  0.34248953  0.64834773    -0.34900
N930        N  0.01786989  0.34302015  0.64875875    -0.29100
C931        C  0.02148819  0.35109052  0.64157588    -0.05200
C932        C  0.01213376  0.35586303  0.63644467     0.07000
C933        C  0.00295368  0.35023228  0.64098978     0.00800
H934        H  0.03023455  0.35343795  0.64036242     0.08400
H935        H  0.99414718  0.35160360  0.63903402     0.07500
N936        N  0.03423162  0.32238884  0.67156475    -0.36300
N937        N  0.02862693  0.31502721  0.67789620    -0.28500
C938        C  0.03597510  0.30993425  0.68493905    -0.03700
C939        C  0.04667201  0.31418432  0.68278577     0.04900
C940        C  0.04521483  0.32207994  0.67430872     0.03000
H941        H  0.03373973  0.30345388  0.69100922     0.08100
H942        H  0.05166870  0.32728433  0.67042955     0.06900
C943        C  0.00681258  0.41978556  0.58023605     0.80000
N944        N  0.99922300  0.41970602  0.57165296    -0.78300
C945        C  0.99889212  0.42831617  0.56404880     0.82500
N946        N  0.00631558  0.43701237  0.56493763    -0.78200
C947        C  0.01415058  0.43700793  0.57328656     0.82600
N948        N  0.01428130  0.42844246  0.58091071    -0.79900
N949        N  0.19638323  0.68543272  0.47600598    -0.27500
N950        N  0.18932656  0.67829052  0.47116701    -0.35300
C951        C  0.18938926  0.67998124  0.45995497     0.00900
C952        C  0.19696713  0.68853123  0.45744064     0.06900
C953        C  0.20117682  0.69187133  0.46787645    -0.06200
H954        H  0.18410758  0.67538259  0.45412072     0.07600
H955        H  0.20728522  0.69847422  0.46944296     0.08800
Cu956      Cu  0.17953478  0.66661227  0.47967289     0.44200
Cu957      Cu  0.19876505  0.68595728  0.49352098     0.42000
Cu958      Cu  0.17803947  0.66898008  0.50943080     0.43900
N959        N  0.16915152  0.65655026  0.48943994    -0.34900
N960        N  0.16822834  0.65768555  0.50048129    -0.29100
C961        C  0.16056502  0.65024938  0.50439141    -0.05200
C962        C  0.15655205  0.64396355  0.49533830     0.07000
C963        C  0.16223023  0.64828364  0.48599842     0.00800
H964        H  0.15816938  0.64957223  0.51318266     0.08400
H965        H  0.16142269  0.64565639  0.47729261     0.07500
N966        N  0.19102461  0.67810595  0.51668830    -0.36300
N967        N  0.19865441  0.68412073  0.51112988    -0.28500
C968        C  0.20600811  0.68845572  0.51865053    -0.03700
C969        C  0.20285863  0.68496063  0.52945011     0.04900
C970        C  0.19330615  0.67844222  0.52778131     0.03000
H971        H  0.21307239  0.69378652  0.51637273     0.08100
H972        H  0.18844661  0.67402049  0.53416185     0.06900
C973        C  0.09789509  0.58197578  0.49252156     0.80000
N974        N  0.09833527  0.57364994  0.50039510    -0.78300
C975        C  0.09070148  0.56510961  0.50038322     0.82500
N976        N  0.08253213  0.56496674  0.49233910    -0.78200
C977        C  0.08203332  0.57316629  0.48428131     0.82600
N978        N  0.08972846  0.58168698  0.48449330    -0.79900
N979        N  0.19802103  0.51416016  0.67854371    -0.27500
N980        N  0.19118361  0.51916323  0.67127168    -0.35300
C981        C  0.19380989  0.53015853  0.67051081     0.00900
C982        C  0.20270688  0.53239730  0.67769440     0.06900
C983        C  0.20524896  0.52199924  0.68258987    -0.06200
H984        H  0.18955232  0.53605893  0.66499258     0.07600
H985        H  0.21178872  0.52029680  0.68872179     0.08800
Cu986      Cu  0.17841056  0.51136281  0.66238369     0.44200
Cu987      Cu  0.19686891  0.49682687  0.68242978     0.42000
Cu988      Cu  0.17308443  0.48272672  0.66813738     0.43900
N989        N  0.16589703  0.50246282  0.65419431    -0.34900
N990        N  0.16388032  0.49171001  0.65632300    -0.29100
C991        C  0.15556218  0.48809710  0.64951676    -0.05200
C992        C  0.15211037  0.49707845  0.64283854     0.07000
C993        C  0.15890006  0.50604596  0.64602043     0.00800
H994        H  0.15232080  0.47955520  0.64939000     0.08400
H995        H  0.15895498  0.51448205  0.64249461     0.07500
N996        N  0.18424121  0.47475279  0.67895126    -0.36300
N997        N  0.19287722  0.47956463  0.68413361    -0.28500
C998        C  0.19830299  0.47157096  0.69020997    -0.03700
C999        C  0.19278909  0.46128254  0.68875344     0.04900
C1000       C  0.18395733  0.46371930  0.68154371     0.03000
H1001       H  0.20579720  0.47312258  0.69516514     0.08100
H1002       H  0.17771821  0.45786918  0.67836039     0.06900
C1003       C  0.09569702  0.49798672  0.57936179     0.80000
N1004       N  0.09699764  0.50576222  0.57097851    -0.78300
C1005       C  0.08893153  0.50704710  0.56294124     0.82500
N1006       N  0.07952608  0.50052122  0.56341497    -0.78200
C1007       C  0.07805457  0.49275020  0.57170860     0.82600
N1008       N  0.08617229  0.49158699  0.57971868    -0.79900
C1009       C  0.10422114  0.49694284  0.58844637    -0.20100
C1010       C  0.11584654  0.49873150  0.58636796     0.36200
C1011       C  0.12348197  0.49834759  0.59543219    -0.26000
C1012       C  0.11974310  0.49608287  0.60644499     0.02600
C1013       C  0.10824586  0.49390571  0.60849903     0.27400
C1014       C  0.10058422  0.49435460  0.59947602    -0.25200
N1015       N  0.11987736  0.50078670  0.57507963    -0.82500
H1016       H  0.13238408  0.49986327  0.59393853     0.13200
C1017       C  0.12795157  0.49617805  0.61581308     0.02600
N1018       N  0.10441383  0.49137800  0.61976587    -0.81100
H1019       H  0.09169669  0.49291387  0.60111456     0.18000
C1020       C  0.12855289  0.50566847  0.62281786    -0.26000
C1021       C  0.13628372  0.50612395  0.63179102     0.36100
C1022       C  0.14357402  0.49688385  0.63371899    -0.20000
C1023       C  0.14282062  0.48732408  0.62675474    -0.25200
C1024       C  0.13508656  0.48689875  0.61778494     0.27400
H1025       H  0.12294512  0.51272390  0.62126778     0.13200
N1026       N  0.13660586  0.51583010  0.63904950    -0.82500
H1027       H  0.14841584  0.48024120  0.62819587     0.18000
N1028       N  0.13447835  0.47714008  0.61061622    -0.81100
H1029       H  0.13073875  0.52187658  0.63643132     0.33700
H1030       H  0.13410974  0.51320363  0.64712339     0.38200
H1031       H  0.14037423  0.47107933  0.61313206     0.33600
H1032       H  0.12651043  0.47349902  0.61174089     0.30300
H1033       H  0.09568611  0.49007184  0.61986967     0.33600
H1034       H  0.10811009  0.48374367  0.62220976     0.30300
H1035       H  0.11831149  0.49351116  0.57034832     0.38200
H1036       H  0.12862109  0.50198248  0.57503519     0.33700
C1037       C  0.09106842  0.55638407  0.50941760    -0.20100
C1038       C  0.08625313  0.54555147  0.50798660     0.36200
C1039       C  0.08631202  0.53787814  0.51705263    -0.26000
C1040       C  0.09120129  0.54069790  0.52744666     0.02600
C1041       C  0.09633748  0.55132970  0.52880525     0.27400
C1042       C  0.09623991  0.55905121  0.51977669    -0.25200
N1043       N  0.08146478  0.54229213  0.49733033    -0.82500
H1044       H  0.08256672  0.52959448  0.51601210     0.13200
C1045       C  0.09066571  0.53243267  0.53685247     0.02600
N1046       N  0.10144817  0.55430356  0.53939835    -0.81100
H1047       H  0.09999529  0.56730511  0.52095938     0.18000
C1048       C  0.10067256  0.52826738  0.54158654    -0.26000
C1049       C  0.10042341  0.51999297  0.55013847     0.36100
C1050       C  0.08990023  0.51584544  0.55403309    -0.20000
C1051       C  0.07991364  0.52018374  0.54933022    -0.25200
C1052       C  0.08018520  0.52848415  0.54087654     0.27400
H1053       H  0.10870615  0.53131199  0.53840569     0.13200
N1054       N  0.11080041  0.51564631  0.55464308    -0.82500
H1055       H  0.07180433  0.51721973  0.55237726     0.18000
N1056       N  0.06985527  0.53300205  0.53640247    -0.81100
H1057       H  0.11773703  0.51976594  0.55102027     0.33700
H1058       H  0.11138365  0.50717288  0.55226012     0.38200
H1059       H  0.06286498  0.52915517  0.54021794     0.33600
H1060       H  0.06952784  0.54155153  0.53855636     0.30300
H1061       H  0.10492414  0.56241287  0.53898354     0.33600
H1062       H  0.09505325  0.55456877  0.54549839     0.30300
H1063       H  0.08802979  0.54206180  0.49141133     0.38200
H1064       H  0.07816921  0.53410901  0.49777588     0.33700
C1065       C  0.10629902  0.59123010  0.49281171    -0.20100
C1066       C  0.10356543  0.60236611  0.48950941     0.36200
C1067       C  0.11186689  0.61082383  0.49006903    -0.26000
C1068       C  0.12282817  0.60839983  0.49382216     0.02600
C1069       C  0.12554733  0.59728987  0.49716456     0.27400
C1070       C  0.11723049  0.58885880  0.49671553    -0.25200
N1071       N  0.09233591  0.60512227  0.48586099    -0.82500
H1072       H  0.10974884  0.61940531  0.48769777     0.13200
C1073       C  0.13136700  0.61758189  0.49420273     0.02600
N1074       N  0.13677490  0.59458838  0.50087110    -0.81100
H1075       H  0.11936391  0.58032508  0.49924277     0.18000
C1076       C  0.13705774  0.61978571  0.50433790    -0.26000
C1077       C  0.14545990  0.62814746  0.50495470     0.36100
C1078       C  0.14790226  0.63481977  0.49529418    -0.20000
C1079       C  0.14202470  0.63266833  0.48520758    -0.25200
C1080       C  0.13392419  0.62405207  0.48451549     0.27400
H1081       H  0.13502942  0.61482697  0.51178371     0.13200
N1082       N  0.15164854  0.62962070  0.51527110    -0.82500
H1083       H  0.14370944  0.63772908  0.47776481     0.18000
N1084       N  0.12835836  0.62177544  0.47397652    -0.81100
H1085       H  0.14866414  0.62415683  0.52156443     0.33700
H1086       H  0.16001249  0.62730131  0.51367696     0.38200
H1087       H  0.13114668  0.62733221  0.46767633     0.33600
H1088       H  0.13071648  0.61367135  0.47141355     0.30300
H1089       H  0.13735724  0.58606223  0.50310676     0.33600
H1090       H  0.14222531  0.59581963  0.49401177     0.30300
H1091       H  0.08692546  0.60393859  0.49276135     0.38200
H1092       H  0.09178517  0.61365257  0.48363263     0.33700
C1093       C  0.02289719  0.44587771  0.57372134    -0.20100
C1094       C  0.03416000  0.44319688  0.57655573     0.36200
C1095       C  0.04227726  0.45179104  0.57680011    -0.26000
C1096       C  0.03943324  0.46296773  0.57420296     0.02600
C1097       C  0.02820868  0.46569905  0.57138779     0.27400
C1098       C  0.02003980  0.45708377  0.57109287    -0.25200
N1099       N  0.03740554  0.43171579  0.57882925    -0.82500
H1100       H  0.05096721  0.44972845  0.57874969     0.13200
C1101       C  0.04855211  0.47149939  0.57392402     0.02600
N1102       N  0.02517934  0.47718493  0.56889319    -0.81100
H1103       H  0.01139717  0.45912831  0.56893666     0.18000
C1104       C  0.05118172  0.47683269  0.56368136    -0.26000
C1105       C  0.06054764  0.48405481  0.56272014     0.36100
C1106       C  0.06759129  0.48579972  0.57225257    -0.20000
C1107       C  0.06471628  0.48058771  0.58256984    -0.25200
C1108       C  0.05522802  0.47355383  0.58351990     0.27400
H1109       H  0.04602713  0.47513732  0.55632463     0.13200
N1110       N  0.06305706  0.48924792  0.55200154    -0.82500
H1111       H  0.06988568  0.48199394  0.58997039     0.18000
N1112       N  0.05237834  0.46838017  0.59416202    -0.81100
H1113       H  0.05774151  0.48612006  0.54570067     0.33700
H1114       H  0.06111261  0.49782168  0.55272262     0.38200
H1115       H  0.05817438  0.47068834  0.60039071     0.33600
H1116       H  0.04455291  0.47158768  0.59668560     0.30300
H1117       H  0.01659021  0.47776191  0.56697846     0.33600
H1118       H  0.02644486  0.48191206  0.57623232     0.30300
H1119       H  0.03633713  0.42712896  0.57136942     0.38200
H1120       H  0.04597443  0.43123317  0.58085691     0.33700
C1121       C  0.00731654  0.41042877  0.58864279    -0.20100
C1122       C  0.99831256  0.40269669  0.59024085     0.36200
C1123       C  0.99946985  0.39389944  0.59814506    -0.26000
C1124       C  0.00926924  0.39279191  0.60464983     0.02600
C1125       C  0.01813341  0.40058643  0.60329642     0.27400
C1126       C  0.01711036  0.40925807  0.59526845    -0.25200
N1127       N  0.98798054  0.40383456  0.58400172    -0.82500
H1128       H  0.99266281  0.38788412  0.59930962     0.13200
C1129       C  0.01009365  0.38345226  0.61293096     0.02600
N1130       N  0.02810011  0.39969303  0.61014693    -0.81100
H1131       H  0.02405876  0.41511497  0.59419633     0.18000
C1132       C  0.01853772  0.37526866  0.61160590    -0.26000
C1133       C  0.01945098  0.36617642  0.61920445     0.36100
C1134       C  0.01174636  0.36532012  0.62829021    -0.20000
C1135       C  0.00331093  0.37352864  0.62958037    -0.25200
C1136       C  0.00248019  0.38266014  0.62206013     0.27400
H1137       H  0.02431901  0.37591135  0.60451807     0.13200
N1138       N  0.02796009  0.35769540  0.61755682    -0.82500
H1139       H  0.99745979  0.37291616  0.63661068     0.18000
N1140       N  0.99402740  0.39120316  0.62370454    -0.81100
H1141       H  0.03294991  0.35962559  0.61050637     0.33700
H1142       H  0.02384240  0.35010262  0.61574902     0.38200
H1143       H  0.98908365  0.38935775  0.63080899     0.33600
H1144       H  0.99820289  0.39878786  0.62541626     0.30300
H1145       H  0.03386502  0.40606824  0.60808298     0.33600
H1146       H  0.02569743  0.40104149  0.61854582     0.30300
H1147       H  0.98410311  0.41130580  0.58664084     0.38200
H1148       H  0.98238623  0.39728882  0.58600186     0.33700
C1149       C  0.94782007  0.42724122  0.51277273    -0.20100
C1150       C  0.94562952  0.42405641  0.52409978     0.36200
C1151       C  0.95441629  0.42437499  0.53204903    -0.26000
C1152       C  0.96529164  0.42782090  0.52892468     0.02600
C1153       C  0.96755062  0.43095449  0.51765770     0.27400
C1154       C  0.95876268  0.43070595  0.50969222    -0.25200
N1155       N  0.93446550  0.42072840  0.52754859    -0.82500
H1156       H  0.95278018  0.42201042  0.54075786     0.13200
C1157       C  0.97419525  0.42818373  0.53763388     0.02600
N1158       N  0.97878225  0.43419136  0.51434012    -0.81100
H1159       H  0.96049674  0.43306617  0.50100376     0.18000
C1160       C  0.98087822  0.41860691  0.53947715    -0.26000
C1161       C  0.98909851  0.41849530  0.54802068     0.36100
C1162       C  0.99059557  0.42816673  0.55479679    -0.20000
C1163       C  0.98403424  0.43780885  0.55279890    -0.25200
C1164       C  0.97575827  0.43787958  0.54432054     0.27400
H1165       H  0.97961552  0.41120189  0.53427051     0.13200
N1166       N  0.99600857  0.40867671  0.54976665    -0.82500
H1167       H  0.98520802  0.44520632  0.55803890     0.18000
N1168       N  0.96875210  0.44763604  0.54263093    -0.81100
H1169       H  0.99382269  0.40229951  0.54408273     0.33700
H1170       H  0.00434664  0.41093769  0.54792139     0.38200
H1171       H  0.97082990  0.45397138  0.54840164     0.33600
H1172       H  0.97052432  0.45087924  0.53459499     0.30300
H1173       H  0.97907222  0.43606899  0.50570365     0.33600
H1174       H  0.98080386  0.44164883  0.51858232     0.30300
H1175       H  0.92920985  0.42775426  0.52663000     0.38200
H1176       H  0.93432500  0.41857302  0.53612466     0.33700
C1177       C  0.91424758  0.40908774  0.49614754    -0.20100
C1178       C  0.90301438  0.41109604  0.49264437     0.36200
C1179       C  0.89516270  0.40219648  0.49282672    -0.26000
C1180       C  0.89829650  0.39136223  0.49637393     0.02600
C1181       C  0.90947358  0.38929272  0.49981027     0.27400
C1182       C  0.91733182  0.39820171  0.49974352    -0.25200
N1183       N  0.89955843  0.42217945  0.48908283    -0.82500
H1184       H  0.88653720  0.40369301  0.49020001     0.13200
C1185       C  0.88973847  0.38225590  0.49646932     0.02600
N1186       N  0.91277158  0.37814850  0.50332249    -0.81100
H1187       H  0.92593868  0.39660609  0.50236418     0.18000
C1188       C  0.89041372  0.37363806  0.48841030    -0.26000
C1189       C  0.88236991  0.36491445  0.48816037     0.36100
C1190       C  0.87347879  0.36487268  0.49612613    -0.20000
C1191       C  0.87291558  0.37343007  0.50429699    -0.25200
C1192       C  0.88094401  0.38217239  0.50450843     0.27400
H1193       H  0.89724633  0.37374499  0.48230284     0.13200
N1194       N  0.88331519  0.35599786  0.47999740    -0.82500
H1195       H  0.86609329  0.37338228  0.51041535     0.18000
N1196       N  0.88021433  0.39098337  0.51281018    -0.81100
H1197       H  0.89030644  0.35730759  0.47474199     0.33700
H1198       H  0.88481875  0.34849708  0.48442259     0.38200
H1199       H  0.87320386  0.38973674  0.51805543     0.33600
H1200       H  0.88734157  0.39038700  0.51796574     0.30300
H1201       H  0.92131664  0.37800239  0.50549354     0.33600
H1202       H  0.90824740  0.37617867  0.51066893     0.30300
H1203       H  0.90014560  0.42751684  0.49608074     0.38200
H1204       H  0.89108402  0.42216363  0.48664522     0.33700
C1205       C  0.93418814  0.48156375  0.43237787    -0.20100
C1206       C  0.94340211  0.47495513  0.43604736     0.36200
C1207       C  0.94198388  0.46753727  0.44522763    -0.26000
C1208       C  0.93160099  0.46666697  0.45084173     0.02600
C1209       C  0.92239606  0.47326394  0.44724495     0.27400
C1210       C  0.92375398  0.48060503  0.43795862    -0.25200
N1211       N  0.95411167  0.47569308  0.43034604    -0.82500
H1212       H  0.94899256  0.46237692  0.44802849     0.13200
C1213       C  0.93052960  0.45859374  0.46034501     0.02600
N1214       N  0.91177927  0.47254809  0.45310749    -0.81100
H1215       H  0.91672237  0.48574992  0.43519322     0.18000
C1216       C  0.93186297  0.46241919  0.47146518    -0.26000
C1217       C  0.93171692  0.45479531  0.48061845     0.36100
C1218       C  0.93023078  0.44315608  0.47852523    -0.20000
C1219       C  0.92857344  0.43942340  0.46740297    -0.25200
C1220       C  0.92878296  0.44702609  0.45827732     0.27400
H1221       H  0.93315598  0.47134826  0.47296621     0.13200
N1222       N  0.93295944  0.45882031  0.49199789    -0.82500
H1223       H  0.92738583  0.43049575  0.46580650     0.18000
N1224       N  0.92746873  0.44304687  0.44688901    -0.81100
H1225       H  0.93398356  0.46759011  0.49205882     0.33700
H1226       H  0.92542129  0.45711340  0.49629312     0.38200
H1227       H  0.92642470  0.43428023  0.44679613     0.33600
H1228       H  0.92001434  0.44650938  0.44369807     0.30300
H1229       H  0.90591865  0.47807498  0.44950891     0.33600
H1230       H  0.90861113  0.46439159  0.45195984     0.30300
H1231       H  0.95297317  0.47277264  0.42209586     0.38200
H1232       H  0.96000142  0.47032647  0.43413573     0.33700
C1233       C  0.87820901  0.49883796  0.35347033    -0.20100
C1234       C  0.88401913  0.48884223  0.35644826     0.36200
C1235       C  0.89203729  0.48911415  0.36517719    -0.26000
C1236       C  0.89460100  0.49919313  0.37078536     0.02600
C1237       C  0.88917795  0.50927144  0.36753178     0.27400
C1238       C  0.88104815  0.50899649  0.35889505    -0.25200
N1239       N  0.88195291  0.47850679  0.35046130    -0.82500
H1240       H  0.89643742  0.48145161  0.36754577     0.13200
C1241       C  0.90315010  0.49905581  0.37992113     0.02600
N1242       N  0.89183008  0.51969321  0.37313581    -0.81100
H1243       H  0.87667864  0.51670034  0.35663333     0.18000
C1244       C  0.91331790  0.50486426  0.37835523    -0.26000
C1245       C  0.92177758  0.50476244  0.38666624     0.36100
C1246       C  0.92004936  0.49856550  0.39684889    -0.20000
C1247       C  0.90975791  0.49276383  0.39832241    -0.25200
C1248       C  0.90130729  0.49298538  0.39000583     0.27400
H1249       H  0.91466949  0.50947721  0.37054164     0.13200
N1250       N  0.93211991  0.51079251  0.38460919    -0.82500
H1251       H  0.90822211  0.48804953  0.40603142     0.18000
N1252       N  0.89083343  0.48708662  0.39175532    -0.81100
H1253       H  0.93241271  0.51387215  0.37632154     0.33700
H1254       H  0.93207356  0.51790643  0.38981947     0.38200
H1255       H  0.89081379  0.48295850  0.39957869     0.33600
H1256       H  0.88440587  0.49311850  0.39207763     0.30300
H1257       H  0.88715242  0.52634674  0.36970780     0.33600
H1258       H  0.88931317  0.51888847  0.38157746     0.30300
H1259       H  0.88454238  0.47973516  0.34209112     0.38200
H1260       H  0.88690522  0.47196378  0.35371022     0.33700
C1261       C  0.99520845  0.55688019  0.41674129    -0.20100
C1262       C  0.98357597  0.55876787  0.41501076     0.36200
C1263       C  0.97625399  0.54948220  0.41418280    -0.26000
C1264       C  0.98033767  0.53843039  0.41509946     0.02600
C1265       C  0.99194619  0.53649715  0.41664596     0.27400
C1266       C  0.99928003  0.54577251  0.41753119    -0.25200
N1267       N  0.97920499  0.57007249  0.41441857    -0.82500
H1268       H  0.96728654  0.55084230  0.41303030     0.13200
C1269       C  0.97220623  0.52901272  0.41489021     0.02600
N1270       N  0.99623289  0.52515300  0.41713278    -0.81100
H1271       H  0.00822670  0.54433786  0.41874319     0.18000
C1272       C  0.96892526  0.52445615  0.40449999    -0.26000
C1273       C  0.96057119  0.51604077  0.40397098     0.36100
C1274       C  0.95542920  0.51219084  0.41407218    -0.20000
C1275       C  0.95899976  0.51658503  0.42447999    -0.25200
C1276       C  0.96726670  0.52505237  0.42498007     0.27400
H1277       H  0.97279516  0.52759488  0.39679579     0.13200
N1278       N  0.95731535  0.51140180  0.39325044    -0.82500
H1279       H  0.95501603  0.51371631  0.43222876     0.18000
N1280       N  0.97032789  0.52999710  0.43563017    -0.81100
H1281       H  0.96184112  0.51522255  0.38667124     0.33700
H1282       H  0.95955554  0.50286658  0.39325935     0.38200
H1283       H  0.96567711  0.52634904  0.44221927     0.33600
H1284       H  0.97878387  0.52806651  0.43717608     0.30300
H1285       H  0.00500249  0.52521544  0.41808408     0.33600
H1286       H  0.99294018  0.52127705  0.42436834     0.30300
H1287       H  0.98046871  0.57382333  0.42230461     0.38200
H1288       H  0.97048841  0.56995997  0.41307185     0.33700
C1289       C  0.02811709  0.57387131  0.43534218    -0.20100
C1290       C  0.03308327  0.56350936  0.43863002     0.36200
C1291       C  0.04153521  0.56345757  0.44695034    -0.26000
C1292       C  0.04516718  0.57350649  0.45202092     0.02600
C1293       C  0.04012173  0.58382125  0.44886574     0.27400
C1294       C  0.03173230  0.58390930  0.44049232    -0.25200
N1295       N  0.02975922  0.55311708  0.43333046    -0.82500
H1296       H  0.04551476  0.55556765  0.44931613     0.13200
C1297       C  0.05459092  0.57317573  0.46027788     0.02600
N1298       N  0.04349959  0.59415024  0.45424713    -0.81100
H1299       H  0.02786510  0.59184805  0.43810474     0.18000
C1300       C  0.06448059  0.57925110  0.45791295    -0.26000
C1301       C  0.07366655  0.57917520  0.46540400     0.36100
C1302       C  0.07287373  0.57301299  0.47566329    -0.20000
C1303       C  0.06301347  0.56672064  0.47786374    -0.25200
C1304       C  0.05387692  0.56675468  0.47030197     0.27400
H1305       H  0.06507895  0.58396566  0.45006918     0.13200
N1306       N  0.08381631  0.58519352  0.46249377    -0.82500
H1307       H  0.06229780  0.56192604  0.48564287     0.18000
N1308       N  0.04381543  0.56042833  0.47283437    -0.81100
H1309       H  0.08290589  0.58941473  0.45477624     0.33700
H1310       H  0.09019239  0.57921110  0.46132212     0.38200
H1311       H  0.04466362  0.55609626  0.48049713     0.33600
H1312       H  0.03723593  0.56620129  0.47392026     0.30300
H1313       H  0.03900154  0.60099523  0.45095768     0.33600
H1314       H  0.04130090  0.59352730  0.46279172     0.30300
H1315       H  0.03212932  0.55360280  0.42482289     0.38200
H1316       H  0.03414758  0.54628734  0.43679699     0.33700
C1317       C  0.01014395  0.63980956  0.36485055    -0.20100
C1318       C  0.00264650  0.64025370  0.37415011     0.36200
C1319       C  0.00265514  0.63143468  0.38214384    -0.26000
C1320       C  0.01002013  0.62226407  0.38100876     0.02600
C1321       C  0.01772166  0.62196086  0.37192966     0.27400
C1322       C  0.01775465  0.63077707  0.36396393    -0.25200
N1323       N  0.99514836  0.64968699  0.37549875    -0.82500
H1324       H  0.99684039  0.63163619  0.38922618     0.13200
C1325       C  0.00945780  0.61283522  0.38921340     0.02600
N1326       N  0.02533500  0.61259146  0.37076329    -0.81100
H1327       H  0.02352961  0.63043362  0.35685755     0.18000
C1328       C  0.00416095  0.60277865  0.38602577    -0.26000
C1329       C  0.00405791  0.59332065  0.39323099     0.36100
C1330       C  0.00937028  0.59399008  0.40394723    -0.20000
C1331       C  0.01446858  0.60423231  0.40715703    -0.25200
C1332       C  0.01455624  0.61365231  0.39989708     0.27400
H1333       H  0.00027892  0.60226008  0.37775886     0.13200
N1334       N  0.99882048  0.58302034  0.38953072    -0.82500
H1335       H  0.01845715  0.60490029  0.41535509     0.18000
N1336       N  0.01986310  0.62402217  0.40327753    -0.81100
H1337       H  0.99502830  0.58411305  0.38163393     0.33700
H1338       H  0.00521414  0.57704776  0.38841138     0.38200
H1339       H  0.02314103  0.62327802  0.41144070     0.33600
H1340       H  0.02673363  0.62541822  0.39788621     0.30300
H1341       H  0.03037753  0.61357806  0.36356071     0.33600
H1342       H  0.03077978  0.61269696  0.37770034     0.30300
H1343       H  0.00011164  0.65687071  0.37679025     0.38200
H1344       H  0.99017384  0.64868580  0.38274698     0.33700
C1345       C  0.78573576  0.30743173  0.39494760    -0.20100
C1346       C  0.79344980  0.30009121  0.40030839     0.36200
C1347       C  0.79742144  0.30268795  0.41121097    -0.26000
C1348       C  0.79389595  0.31249537  0.41685118     0.02600
C1349       C  0.78630518  0.31990523  0.41142027     0.27400
C1350       C  0.78239417  0.31735116  0.40049238    -0.25200
N1351       N  0.79739428  0.29015782  0.39457295    -0.82500
H1352       H  0.80340589  0.29710999  0.41529560     0.13200
C1353       C  0.79839537  0.31501964  0.42834003     0.02600
N1354       N  0.78247095  0.32990772  0.41710586    -0.81100
H1355       H  0.77647921  0.32299072  0.39638889     0.18000
C1356       C  0.80434457  0.32509172  0.43011835    -0.26000
C1357       C  0.80885141  0.32776352  0.44077260     0.36100
C1358       C  0.80779970  0.31995741  0.44982411    -0.20000
C1359       C  0.80154322  0.31001457  0.44809912    -0.25200
C1360       C  0.79676585  0.30751538  0.43749034     0.27400
H1361       H  0.80545438  0.33092662  0.42313010     0.13200
N1362       N  0.81428328  0.33848492  0.44243810    -0.82500
H1363       H  0.80054036  0.30405275  0.45498551     0.18000
N1364       N  0.79024309  0.29739743  0.43596381    -0.81100
H1365       H  0.81438524  0.34318771  0.43494523     0.33700
H1366       H  0.80940957  0.34303532  0.44822433     0.38200
H1367       H  0.78981131  0.29278406  0.44350040     0.33600
H1368       H  0.78198625  0.29982497  0.43403982     0.30300
H1369       H  0.77692010  0.33446048  0.41197536     0.33600
H1370       H  0.77785769  0.32734186  0.42421061     0.30300
H1371       H  0.80192323  0.29281024  0.38744429     0.38200
H1372       H  0.80305530  0.28568318  0.39965125     0.33700
C1373       C  0.79060017  0.39793225  0.29852984    -0.20100
C1374       C  0.79742768  0.40384934  0.29067552     0.36200
C1375       C  0.80129474  0.41476274  0.29332402    -0.26000
C1376       C  0.79845201  0.41987745  0.30361483     0.02600
C1377       C  0.79181538  0.41392901  0.31153951     0.27400
C1378       C  0.78800513  0.40298618  0.30894568    -0.25200
N1379       N  0.80050384  0.39872552  0.28010826    -0.82500
H1380       H  0.80652508  0.41933971  0.28733521     0.13200
C1381       C  0.80271498  0.43138956  0.30608621     0.02600
N1382       N  0.78894074  0.41906369  0.32215552    -0.81100
H1383       H  0.78277112  0.39847902  0.31498232     0.18000
C1384       C  0.79526380  0.44059036  0.30595031    -0.26000
C1385       C  0.79907912  0.45162377  0.30828310     0.36100
C1386       C  0.81059850  0.45344222  0.31078010    -0.20000
C1387       C  0.81799383  0.44415982  0.31089726    -0.25200
C1388       C  0.81417526  0.43317836  0.30859232     0.27400
H1389       H  0.78644177  0.43912796  0.30405578     0.13200
N1390       N  0.79126766  0.46089313  0.30834762    -0.82500
H1391       H  0.82684772  0.44547496  0.31272366     0.18000
N1392       N  0.82187514  0.42380795  0.30881678    -0.81100
H1393       H  0.78315300  0.45811774  0.30628278     0.33700
H1394       H  0.79083350  0.46394923  0.31661890     0.38200
H1395       H  0.83004069  0.42655213  0.31071497     0.33600
H1396       H  0.81939215  0.41846084  0.31541966     0.30300
H1397       H  0.78391547  0.41362342  0.32699990     0.33600
H1398       H  0.79642811  0.42024277  0.32665657     0.30300
H1399       H  0.80550633  0.39168797  0.28192450     0.38200
H1400       H  0.80549314  0.40421643  0.27528364     0.33700
C1401       C  0.77891227  0.35995497  0.31087043    -0.20100
C1402       C  0.78309246  0.34885116  0.30968072     0.36200
C1403       C  0.78212218  0.34119073  0.31869119    -0.26000
C1404       C  0.77685949  0.34425125  0.32890519     0.02600
C1405       C  0.77267034  0.35536796  0.33009585     0.27400
C1406       C  0.77390717  0.36312509  0.32113759    -0.25200
N1407       N  0.78872990  0.34524957  0.29959212    -0.82500
H1408       H  0.78561189  0.33279349  0.31774125     0.13200
C1409       C  0.77598778  0.33581515  0.33831197     0.02600
N1410       N  0.76705205  0.35870631  0.34033820    -0.81100
H1411       H  0.77074844  0.37165526  0.32208601     0.18000
C1412       C  0.77982191  0.33869162  0.34913724    -0.26000
C1413       C  0.77919940  0.33102943  0.35824150     0.36100
C1414       C  0.77520431  0.31986694  0.35638770    -0.20000
C1415       C  0.77122542  0.31708832  0.34552741    -0.25200
C1416       C  0.77141505  0.32495045  0.33656927     0.27400
H1417       H  0.78334434  0.34701852  0.35050976     0.13200
N1418       N  0.78264055  0.33464126  0.36930279    -0.82500
H1419       H  0.76795355  0.30870689  0.34394346     0.18000
N1420       N  0.76692876  0.32194615  0.32570515    -0.81100
H1421       H  0.78573189  0.34291155  0.36907394     0.33700
H1422       H  0.77541375  0.33483477  0.37439276     0.38200
H1423       H  0.76390380  0.31365022  0.32578678     0.33600
H1424       H  0.75998053  0.32715448  0.32416211     0.30300
H1425       H  0.76453406  0.36715249  0.33987824     0.33600
H1426       H  0.75968572  0.35388818  0.34106096     0.30300
H1427       H  0.79549390  0.35071513  0.29802110     0.38200
H1428       H  0.78307752  0.34578211  0.29285313     0.33700
C1429       C  0.77171608  0.37264039  0.27163552    -0.20100
C1430       C  0.77689785  0.37704929  0.26178628     0.36200
C1431       C  0.77128811  0.37631952  0.25136301    -0.26000
C1432       C  0.76063312  0.37126950  0.25053488     0.02600
C1433       C  0.75554698  0.36657353  0.26025560     0.27400
C1434       C  0.76121019  0.36717968  0.27070846    -0.25200
N1435       N  0.78781869  0.38230518  0.26240696    -0.82500
H1436       H  0.77514206  0.37990240  0.24384563     0.13200
C1437       C  0.75465973  0.37180732  0.23953958     0.02600
N1438       N  0.74457801  0.36144121  0.25950695    -0.81100
H1439       H  0.75718264  0.36383109  0.27823892     0.18000
C1440       C  0.75525314  0.36273907  0.23199511    -0.26000
C1441       C  0.75057053  0.36347297  0.22111474     0.36100
C1442       C  0.74516733  0.37360655  0.21753867    -0.20000
C1443       C  0.74442368  0.38254831  0.22539356    -0.25200
C1444       C  0.74904154  0.38172872  0.23628662     0.27400
H1445       H  0.75955950  0.35507337  0.23452446     0.13200
N1446       N  0.75147718  0.35375147  0.21403268    -0.82500
H1447       H  0.74028491  0.39035425  0.22306549     0.18000
N1448       N  0.74824109  0.39103584  0.24402895    -0.81100
H1449       H  0.75600533  0.35589572  0.20674482     0.33700
H1450       H  0.74334934  0.35110078  0.21191654     0.38200
H1451       H  0.74397755  0.39781598  0.24031822     0.33600
H1452       H  0.74331934  0.38839684  0.25089439     0.30300
H1453       H  0.74203101  0.35837163  0.26740827     0.33600
H1454       H  0.73882355  0.36774639  0.25728410     0.30300
H1455       H  0.79359833  0.37611231  0.26487075     0.38200
H1456       H  0.79040419  0.38517155  0.25444279     0.33700
C1457       C  0.73673127  0.36085173  0.17808139    -0.20100
C1458       C  0.73584104  0.34921527  0.18054662     0.36200
C1459       C  0.73599977  0.34125835  0.17175375    -0.26000
C1460       C  0.73723206  0.34457289  0.16040620     0.02600
C1461       C  0.73801778  0.35622550  0.15786140     0.27400
C1462       C  0.73763384  0.36421206  0.16669087    -0.25200
N1463       N  0.73446654  0.34539372  0.19195073    -0.82500
H1464       H  0.73512913  0.33238296  0.17383245     0.13200
C1465       C  0.73787954  0.33573634  0.15137442     0.02600
N1466       N  0.73939501  0.35990850  0.14634991    -0.81100
H1467       H  0.73828902  0.37311715  0.16467007     0.18000
C1468       C  0.73069644  0.33631660  0.14196140    -0.26000
C1469       C  0.73119384  0.32821511  0.13328747     0.36100
C1470       C  0.73891063  0.31912594  0.13400864    -0.20000
C1471       C  0.74594978  0.31846052  0.14354461    -0.25200
C1472       C  0.74562471  0.32669397  0.15211607     0.27400
H1473       H  0.72458966  0.34309108  0.14134897     0.13200
N1474       N  0.72368869  0.32920962  0.12387021    -0.82500
H1475       H  0.75197284  0.31162192  0.14421094     0.18000
N1476       N  0.75330232  0.32601231  0.16148122    -0.81100
H1477       H  0.71540875  0.32916945  0.12694549     0.33700
H1478       H  0.72515457  0.33701049  0.11997118     0.38200
H1479       H  0.75842229  0.31886130  0.16081492     0.33600
H1480       H  0.75866256  0.33301804  0.16102223     0.30300
H1481       H  0.73979755  0.36871734  0.14590216     0.33600
H1482       H  0.74717184  0.35688844  0.14346878     0.30300
H1483       H  0.74105888  0.33982125  0.19376700     0.38200
H1484       H  0.72688730  0.34089511  0.19249240     0.33700
C1485       C  0.76619363  0.22287104  0.12051777    -0.20100
C1486       C  0.76822421  0.22899372  0.13056555     0.36200
C1487       C  0.76488503  0.24039571  0.13122719    -0.26000
C1488       C  0.75933882  0.24569160  0.12219289     0.02600
C1489       C  0.75703144  0.23948920  0.11230951     0.27400
C1490       C  0.76054978  0.22820351  0.11154862    -0.25200
N1491       N  0.77417390  0.22385679  0.13981158    -0.82500
H1492       H  0.76674379  0.24524344  0.13875017     0.13200
C1493       C  0.75664274  0.25794000  0.12274169     0.02600
N1494       N  0.75128782  0.24477095  0.10300232    -0.81100
H1495       H  0.75893810  0.22354447  0.10384873     0.18000
C1496       C  0.76207999  0.26514052  0.11501036    -0.26000
C1497       C  0.75912858  0.27657787  0.11412642     0.36100
C1498       C  0.75070744  0.28100536  0.12128458    -0.20000
C1499       C  0.74575901  0.27403458  0.12952124    -0.25200
C1500       C  0.74843895  0.26248797  0.13021690     0.27400
H1501       H  0.76843002  0.26170430  0.10937920     0.13200
N1502       N  0.76446553  0.28368711  0.10580984    -0.82500
H1503       H  0.73919523  0.27739978  0.13494451     0.18000
N1504       N  0.74229639  0.25565714  0.13821525    -0.81100
H1505       H  0.77038500  0.27911766  0.10111941     0.33700
H1506       H  0.76893978  0.28994011  0.11012461     0.38200
H1507       H  0.73376198  0.25601629  0.13602318     0.33600
H1508       H  0.74456418  0.24717331  0.13774435     0.30300
H1509       H  0.75034900  0.23911057  0.09630420     0.33600
H1510       H  0.74315458  0.24683396  0.10574521     0.30300
H1511       H  0.76881225  0.21782695  0.14342118     0.38200
H1512       H  0.77574214  0.22978440  0.14614966     0.33700
C1513       C  0.77507760  0.18440214  0.13462415    -0.20100
C1514       C  0.76635906  0.18329881  0.14280698     0.36200
C1515       C  0.76719392  0.17509103  0.15134404    -0.26000
C1516       C  0.77663072  0.16797827  0.15215082     0.02600
C1517       C  0.78541734  0.16914479  0.14412725     0.27400
C1518       C  0.78446717  0.17719910  0.13539107    -0.25200
N1519       N  0.75636357  0.19007877  0.14248337    -0.82500
H1520       H  0.76033051  0.17418017  0.15735243     0.13200
C1521       C  0.77706601  0.15913536  0.16120440     0.02600
N1522       N  0.79534149  0.16222572  0.14496046    -0.81100
H1523       H  0.79123591  0.17801436  0.12926482     0.18000
C1524       C  0.77850247  0.14779598  0.15815236    -0.26000
C1525       C  0.77915710  0.13914995  0.16632864     0.36100
C1526       C  0.77815770  0.14184360  0.17798948    -0.20000
C1527       C  0.77646047  0.15322877  0.18098135    -0.25200
C1528       C  0.77599599  0.16186997  0.17276287     0.27400
H1529       H  0.77914990  0.14567036  0.14927184     0.13200
N1530       N  0.78060875  0.12766459  0.16270706    -0.82500
H1531       H  0.77569116  0.15547285  0.18981496     0.18000
N1532       N  0.77458375  0.17343629  0.17613027    -0.81100
H1533       H  0.77982388  0.12704853  0.15392968     0.33700
H1534       H  0.78893124  0.12538314  0.16451010     0.38200
H1535       H  0.77385872  0.17404129  0.18491701     0.33600
H1536       H  0.78192380  0.17780163  0.17385396     0.30300
H1537       H  0.80099555  0.16409201  0.13841436     0.33600
H1538       H  0.79941130  0.16431324  0.15250174     0.30300
H1539       H  0.75268152  0.18930947  0.13450255     0.38200
H1540       H  0.75856608  0.19849956  0.14386130     0.33700
C1541       C  0.74407534  0.12884096  0.27202930    -0.20100
C1542       C  0.74025513  0.12249787  0.26268087     0.36200
C1543       C  0.74565233  0.12358342  0.25217044    -0.26000
C1544       C  0.75481099  0.13092803  0.25068944     0.02600
C1545       C  0.75845325  0.13759504  0.25982608     0.27400
C1546       C  0.75297524  0.13657588  0.27038682    -0.25200
N1547       N  0.73086045  0.11494951  0.26376843    -0.82500
H1548       H  0.74279908  0.11848379  0.24513872     0.13200
C1549       C  0.76096383  0.13076321  0.23974096     0.02600
N1550       N  0.76788761  0.14510928  0.25842262    -0.81100
H1551       H  0.75599341  0.14149516  0.27746594     0.18000
C1552       C  0.75983010  0.13968478  0.23201899    -0.26000
C1553       C  0.76464854  0.13911818  0.22115569     0.36100
C1554       C  0.77075653  0.12932157  0.21782445    -0.20000
C1555       C  0.77226883  0.12068660  0.22594138    -0.25200
C1556       C  0.76749026  0.12132260  0.23678360     0.27400
H1557       H  0.75491302  0.14703098  0.23435327     0.13200
N1558       N  0.76302473  0.14857618  0.21378247    -0.82500
H1559       H  0.77709167  0.11322526  0.22383956     0.18000
N1560       N  0.76908849  0.11231293  0.24479788    -0.81100
H1561       H  0.75860282  0.14592690  0.20663577     0.33700
H1562       H  0.77092066  0.15174452  0.21140610     0.38200
H1563       H  0.77403821  0.10589611  0.24131264     0.33600
H1564       H  0.77363571  0.11558256  0.25160858     0.30300
H1565       H  0.76950847  0.14942080  0.26594540     0.33600
H1566       H  0.77501098  0.14017948  0.25675292     0.30300
H1567       H  0.72466716  0.11744381  0.25800487     0.38200
H1568       H  0.73356163  0.10684877  0.26155436     0.33700
C1569       C  0.74726627  0.22377230  0.36783603    -0.20100
C1570       C  0.75722887  0.22595329  0.36152814     0.36200
C1571       C  0.76158735  0.23698933  0.36096933    -0.26000
C1572       C  0.75620124  0.24596232  0.36652707     0.02600
C1573       C  0.74629226  0.24384841  0.37278580     0.27400
C1574       C  0.74193084  0.23282310  0.37335314    -0.25200
N1575       N  0.76336625  0.21711436  0.35602936    -0.82500
H1576       H  0.76931482  0.23855633  0.35629878     0.13200
C1577       C  0.76129557  0.25744604  0.36646060     0.02600
N1578       N  0.74082358  0.25290135  0.37873251    -0.81100
H1579       H  0.73433958  0.23126744  0.37824664     0.18000
C1580       C  0.75590834  0.26625891  0.36065296    -0.26000
C1581       C  0.75974623  0.27750842  0.36151405     0.36100
C1582       C  0.76909977  0.28000217  0.36852580    -0.20000
C1583       C  0.77463309  0.27104874  0.37405001    -0.25200
C1584       C  0.77083136  0.25984078  0.37310481     0.27400
H1585       H  0.74852487  0.26435912  0.35561760     0.13200
N1586       N  0.75381931  0.28638875  0.35574359    -0.82500
H1587       H  0.78186095  0.27282766  0.37934565     0.18000
N1588       N  0.77641280  0.25090953  0.37914560    -0.81100
H1589       H  0.74662712  0.28321129  0.35175367     0.33700
H1590       H  0.75908491  0.28933029  0.34927293     0.38200
H1591       H  0.78333065  0.25405362  0.38361504     0.33600
H1592       H  0.77074663  0.24775755  0.38517002     0.30300
H1593       H  0.73360156  0.24997088  0.38291099     0.33600
H1594       H  0.74635491  0.25571661  0.38499471     0.30300
H1595       H  0.76535686  0.21093625  0.36202867     0.38200
H1596       H  0.75823918  0.21353654  0.34982632     0.33700
C1597       C  0.73659421  0.18588843  0.35340896    -0.20100
C1598       C  0.72664354  0.17970445  0.35087032     0.36200
C1599       C  0.72709939  0.17102540  0.34281481    -0.26000
C1600       C  0.73710932  0.16842686  0.33701119     0.02600
C1601       C  0.74702519  0.17467680  0.33948607     0.27400
C1602       C  0.74654485  0.18344042  0.34745028    -0.25200
N1603       N  0.71588885  0.18211824  0.35601255    -0.82500
H1604       H  0.71944897  0.16639879  0.34087805     0.13200
C1605       C  0.73681343  0.15943885  0.32819563     0.02600
N1606       N  0.75779234  0.17219410  0.33441413    -0.81100
H1607       H  0.75420239  0.18806300  0.34937333     0.18000
C1608       C  0.73926368  0.16224750  0.31693696    -0.26000
C1609       C  0.73936373  0.15401859  0.30836134     0.36100
C1610       C  0.73653743  0.14264069  0.31102033    -0.20000
C1611       C  0.73380437  0.13997049  0.32233220    -0.25200
C1612       C  0.73397806  0.14819368  0.33090910     0.27400
H1613       H  0.74131088  0.17093470  0.31487472     0.13200
N1614       N  0.74227820  0.15730121  0.29701499    -0.82500
H1615       H  0.73160838  0.13137512  0.32458250     0.18000
N1616       N  0.73133297  0.14515816  0.34239111    -0.81100
H1617       H  0.74318494  0.16606429  0.29639549     0.33700
H1618       H  0.75024644  0.15393704  0.29527545     0.38200
H1619       H  0.72933776  0.13657557  0.34298995     0.33600
H1620       H  0.73860598  0.14639737  0.34721531     0.30300
H1621       H  0.76336205  0.17013907  0.34094156     0.33600
H1622       H  0.75745013  0.16504974  0.32930482     0.30300
H1623       H  0.71616065  0.18948215  0.36080080     0.38200
H1624       H  0.71018799  0.18386594  0.34951005     0.33700
C1625       C  0.10257369  0.99882593  0.90396282    -0.20100
C1626       C  0.10010498  0.00256928  0.89285049     0.36200
C1627       C  0.10841132  0.00176612  0.88435742    -0.26000
C1628       C  0.11905055  0.99719343  0.88666069     0.02600
C1629       C  0.12147582  0.99320999  0.89760838     0.27400
C1630       C  0.11322328  0.99405359  0.90614567    -0.25200
N1631       N  0.08915591  0.00702869  0.89015680    -0.82500
H1632       H  0.10660624  0.00474031  0.87588306     0.13200
C1633       C  0.12771407  0.99696064  0.87759680     0.02600
N1634       N  0.13237277  0.98847681  0.90002771    -0.81100
H1635       H  0.11519559  0.99112703  0.91459529     0.18000
C1636       C  0.13564500  0.00571595  0.87698599    -0.26000
C1637       C  0.14401626  0.00587488  0.86853075     0.36100
C1638       C  0.14441752  0.99708046  0.86047273    -0.20000
C1639       C  0.13647257  0.98827606  0.86116022    -0.25200
C1640       C  0.12808484  0.98816081  0.86962184     0.27400
H1641       H  0.13531768  0.01242433  0.88318830     0.13200
N1642       N  0.15224125  0.01480226  0.86827305    -0.82500
H1643       H  0.13672122  0.98154370  0.85498513     0.18000
N1644       N  0.11987992  0.97922343  0.87010271    -0.81100
H1645       H  0.15070387  0.02062012  0.87472511     0.33700
H1646       H  0.16011797  0.01120643  0.86994282     0.38200
H1647       H  0.12122043  0.97347464  0.86354603     0.33600
H1648       H  0.12113065  0.97479323  0.87764975     0.30300
H1649       H  0.13286886  0.98604799  0.90851486     0.33600
H1650       H  0.13321172  0.98110726  0.89525792     0.30300
H1651       H  0.08330738  0.00047920  0.89114219     0.38200
H1652       H  0.08879576  0.00950885  0.88167678     0.33700
C1653       C  0.06973494  0.01780109  0.92155136    -0.20100
C1654       C  0.06506171  0.02236632  0.93157375     0.36200
C1655       C  0.05630860  0.03034056  0.93083859    -0.26000
C1656       C  0.05217229  0.03392746  0.92034688     0.02600
C1657       C  0.05677605  0.02940917  0.91034650     0.27400
C1658       C  0.06557550  0.02146736  0.91104093    -0.25200
N1659       N  0.06932705  0.01906203  0.94245541    -0.82500
H1660       H  0.05278231  0.03392485  0.93848938     0.13200
C1661       C  0.04319850  0.04265026  0.92002004     0.02600
N1662       N  0.05238233  0.03280394  0.89954896    -0.81100
H1663       H  0.06901561  0.01792734  0.90333476     0.18000
C1664       C  0.04576765  0.05343715  0.91585733    -0.26000
C1665       C  0.03769681  0.06210423  0.91599581     0.36100
C1666       C  0.02675740  0.05997916  0.92031783    -0.20000
C1667       C  0.02420858  0.04911014  0.92443525    -0.25200
C1668       C  0.03229320  0.04041409  0.92425320     0.27400
H1669       H  0.05417928  0.05520497  0.91268772     0.13200
N1670       N  0.04080060  0.07312715  0.91205839    -0.82500
H1671       H  0.01582853  0.04733211  0.92766794     0.18000
N1672       N  0.02948157  0.02929987  0.92828921    -0.81100
H1673       H  0.04765050  0.07592946  0.91684766     0.33700
H1674       H  0.04345893  0.07243056  0.90365533     0.38200
H1675       H  0.02112517  0.02903501  0.93113967     0.33600
H1676       H  0.02999118  0.02379085  0.92141649     0.30300
H1677       H  0.05666801  0.02869275  0.89301402     0.33600
H1678       H  0.04398520  0.03011161  0.89916215     0.30300
H1679       H  0.07767888  0.02186799  0.94296638     0.38200
H1680       H  0.06489253  0.02311039  0.94893076     0.33700
C1681       C  0.00896727  0.13852046  0.86253208    -0.20100
C1682       C  0.99940261  0.13166526  0.86472289     0.36200
C1683       C  0.99979903  0.12360636  0.87346222    -0.26000
C1684       C  0.00956199  0.12208914  0.87994131     0.02600
C1685       C  0.01911076  0.12886976  0.87778294     0.27400
C1686       C  0.01872846  0.13698023  0.86909061    -0.25200
N1687       N  0.98943950  0.13262544  0.85789193    -0.82500
H1688       H  0.99254494  0.11824533  0.87505222     0.13200
C1689       C  0.00979847  0.11298094  0.88859051     0.02600
N1690       N  0.02912404  0.12752627  0.88448246    -0.81100
H1691       H  0.02605756  0.14224100  0.86755978     0.18000
C1692       C  0.01732675  0.10398646  0.88722340    -0.26000
C1693       C  0.01739415  0.09479524  0.89477322     0.36100
C1694       C  0.00992095  0.09473601  0.90418668    -0.20000
C1695       C  0.00242922  0.10387784  0.90552160    -0.25200
C1696       C  0.00226318  0.11294185  0.89781315     0.27400
H1697       H  0.02296494  0.10398994  0.87999377     0.13200
N1698       N  0.02486756  0.08547343  0.89269009    -0.82500
H1699       H  0.99666088  0.10401527  0.91263495     0.18000
N1700       N  0.99448139  0.12212558  0.89930651    -0.81100
H1701       H  0.03003579  0.08707834  0.88568850     0.33700
H1702       H  0.01987795  0.07851344  0.89056219     0.38200
H1703       H  0.98944028  0.12079876  0.90645589     0.33600
H1704       H  0.99921321  0.12941686  0.90083402     0.30300
H1705       H  0.03541964  0.13312292  0.88179476     0.33600
H1706       H  0.02709331  0.12975375  0.89278735     0.30300
H1707       H  0.99157809  0.13011095  0.84969820     0.38200
H1708       H  0.98316637  0.12706849  0.86071398     0.33700
C1709       C  0.80848020  0.18634799  0.04018932    -0.20100
C1710       C  0.80240454  0.19638420  0.04248741     0.36200
C1711       C  0.79757319  0.19802023  0.05328016    -0.26000
C1712       C  0.79901061  0.19010946  0.06204019     0.02600
C1713       C  0.80531408  0.18024963  0.05985596     0.27400
C1714       C  0.80978032  0.17840831  0.04898398    -0.25200
N1715       N  0.80133664  0.20501980  0.03401029    -0.82500
H1716       H  0.79270840  0.20558518  0.05490047     0.13200
C1717       C  0.79391229  0.19222125  0.07344665     0.02600
N1718       N  0.80728731  0.17217968  0.06873841    -0.81100
H1719       H  0.81433424  0.17065536  0.04743538     0.18000
C1720       C  0.78714447  0.18386190  0.07855803    -0.26000
C1721       C  0.78246953  0.18535736  0.08942653     0.36100
C1722       C  0.78426924  0.19562614  0.09519343    -0.20000
C1723       C  0.79081793  0.20407532  0.08997743    -0.25200
C1724       C  0.79581186  0.20242612  0.07930259     0.27400
H1725       H  0.78549826  0.17610054  0.07402669     0.13200
N1726       N  0.77556636  0.17665994  0.09438519    -0.82500
H1727       H  0.79224328  0.21195898  0.09437874     0.18000
N1728       N  0.80294129  0.21101937  0.07447711    -0.81100
H1729       H  0.77444325  0.17001181  0.08870101     0.33700
H1730       H  0.78000894  0.17328119  0.10121847     0.38200
H1731       H  0.80341199  0.21802322  0.07981595     0.33600
H1732       H  0.81110002  0.20771392  0.07391395     0.30300
H1733       H  0.81202637  0.16536169  0.06576213     0.33600
H1734       H  0.81217710  0.17615056  0.07490648     0.30300
H1735       H  0.80941181  0.20823191  0.03242379     0.38200
H1736       H  0.79651038  0.21176240  0.03702054     0.33700
C1737       C  0.94838246  0.07728536  0.97879557    -0.20100
C1738       C  0.95179846  0.08714562  0.97291271     0.36200
C1739       C  0.96012338  0.08637716  0.96444545    -0.26000
C1740       C  0.96530396  0.07605534  0.96187282     0.02600
C1741       C  0.96211579  0.06626370  0.96787377     0.27400
C1742       C  0.95372942  0.06697994  0.97626294    -0.25200
N1743       N  0.94703999  0.09794236  0.97569653    -0.82500
H1744       H  0.96277514  0.09392308  0.95996276     0.13200
C1745       C  0.97431206  0.07573207  0.95311072     0.02600
N1746       N  0.96732680  0.05560871  0.96532989    -0.81100
H1747       H  0.95122739  0.05936215  0.98069998     0.18000
C1748       C  0.98521627  0.07231090  0.95615559    -0.26000
C1749       C  0.99410444  0.07236627  0.94825391     0.36100
C1750       C  0.99203487  0.07595024  0.93703617    -0.20000
C1751       C  0.98108345  0.07931433  0.93399561    -0.25200
C1752       C  0.97217376  0.07910004  0.94187817     0.27400
H1753       H  0.98683916  0.06980673  0.96481605     0.13200
N1754       N  0.00526297  0.06908496  0.95167989    -0.82500
H1755       H  0.97943353  0.08195500  0.92538164     0.18000
N1756       N  0.96093991  0.08218393  0.93851812    -0.81100
H1757       H  0.00530741  0.06657890  0.96016112     0.33700
H1758       H  0.01043056  0.07622660  0.95110365     0.38200
H1759       H  0.96077767  0.08444253  0.92997028     0.33600
H1760       H  0.95584809  0.07501247  0.93936453     0.30300
H1761       H  0.96410148  0.04923258  0.97055102     0.33600
H1762       H  0.96513713  0.05348088  0.95705023     0.30300
H1763       H  0.94957687  0.09989216  0.98392109     0.38200
H1764       H  0.95034470  0.10426916  0.97046474     0.33700
C1765       C  0.91362850  0.09401387  0.99510759    -0.20100
C1766       C  0.91598613  0.10543967  0.99251721     0.36200
C1767       C  0.90715853  0.11337007  0.99254546    -0.26000
C1768       C  0.89606797  0.11013084  0.99512973     0.02600
C1769       C  0.89369221  0.09877787  0.99779502     0.27400
C1770       C  0.90249994  0.09083804  0.99779391    -0.25200
N1771       N  0.92733270  0.10900204  0.99007852    -0.82500
H1772       H  0.90891082  0.12213484  0.99054649     0.13200
C1773       C  0.88699913  0.11873060  0.99493887     0.02600
N1774       N  0.88234482  0.09538422  0.00048899    -0.81100
H1775       H  0.90064257  0.08209443  0.99978691     0.18000
C1776       C  0.87890025  0.11838876  0.98634282    -0.26000
C1777       C  0.87026719  0.12650595  0.98574971     0.36100
C1778       C  0.86977690  0.13517325  0.99392967    -0.20000
C1779       C  0.87781286  0.13536495  0.00264361    -0.25200
C1780       C  0.88644597  0.12724705  0.00320517     0.27400
H1781       H  0.87934860  0.11175668  0.98006642     0.13200
N1782       N  0.86190418  0.12583789  0.97700231    -0.82500
H1783       H  0.87745993  0.14197630  0.00894269     0.18000
N1784       N  0.89467434  0.12761053  0.01210256    -0.81100
H1785       H  0.86353521  0.11902134  0.97164668     0.33700
H1786       H  0.85413526  0.12419931  0.98088802     0.38200
H1787       H  0.89313851  0.13444523  0.01746255     0.33600
H1788       H  0.89366775  0.12030643  0.01698864     0.30300
H1789       H  0.88199468  0.08671915  0.00217103     0.33600
H1790       H  0.88001459  0.09947437  0.00795813     0.30300
H1791       H  0.93209643  0.10781589  0.99741056     0.38200
H1792       H  0.92759102  0.11764146  0.98825314     0.33700
C1793       C  0.81116801  0.04839382  0.18034606    -0.20100
C1794       C  0.79939240  0.05017241  0.18095422     0.36200
C1795       C  0.79523095  0.06115705  0.18284416    -0.26000
C1796       C  0.80259839  0.07034316  0.18412504     0.02600
C1797       C  0.81432941  0.06859070  0.18351209     0.27400
C1798       C  0.81848914  0.05765883  0.18157373    -0.25200
N1799       N  0.79171297  0.04090765  0.17942249    -0.82500
H1800       H  0.78621200  0.06258684  0.18331871     0.13200
C1801       C  0.79796116  0.08176016  0.18631605     0.02600
N1802       N  0.82195626  0.07792831  0.18491868    -0.81100
H1803       H  0.82752537  0.05634386  0.18113241     0.18000
C1804       C  0.79844255  0.08612718  0.19728006    -0.26000
C1805       C  0.79422484  0.09693801  0.19975929     0.36100
C1806       C  0.78931074  0.10353332  0.19103842    -0.20000
C1807       C  0.78902279  0.09914892  0.17999907    -0.25200
C1808       C  0.79330481  0.08833302  0.17756053     0.27400
H1809       H  0.80217349  0.08105899  0.20392986     0.13200
N1810       N  0.79506715  0.10124898  0.21107572    -0.82500
H1811       H  0.78529357  0.10409817  0.17326778     0.18000
N1812       N  0.79291942  0.08396383  0.16624738    -0.81100
H1813       H  0.79871321  0.09527628  0.21646460     0.33700
H1814       H  0.80056351  0.10815905  0.21085419     0.38200
H1815       H  0.78915930  0.08980113  0.16079019     0.33600
H1816       H  0.80124078  0.08296000  0.16346795     0.30300
H1817       H  0.83032983  0.07521045  0.18434860     0.33600
H1818       H  0.82067062  0.08350618  0.17818029     0.30300
H1819       H  0.79268546  0.03802265  0.17113343     0.38200
H1820       H  0.78335955  0.04364248  0.18018569     0.33700
C1821       C  0.92632521  0.01372177  0.05082807    -0.20100
C1822       C  0.92162466  0.02441695  0.05336582     0.36200
C1823       C  0.92188767  0.03299685  0.04516086    -0.26000
C1824       C  0.92673345  0.03118188  0.03450777     0.02600
C1825       C  0.93128597  0.02050660  0.03189472     0.27400
C1826       C  0.93112177  0.01192591  0.04010758    -0.25200
N1827       N  0.91686823  0.02667322  0.06432358    -0.82500
H1828       H  0.91855001  0.04126575  0.04717992     0.13200
C1829       C  0.92743944  0.04071462  0.02637705     0.02600
N1830       N  0.93599937  0.01842165  0.02088646    -0.81100
H1831       H  0.93464233  0.00374271  0.03806067     0.18000
C1832       C  0.93805919  0.04410493  0.02236964    -0.26000
C1833       C  0.93920970  0.05325539  0.01488648     0.36100
C1834       C  0.92946659  0.05911165  0.01123724    -0.20000
C1835       C  0.91884654  0.05581290  0.01543846    -0.25200
C1836       C  0.91772612  0.04664273  0.02292106     0.27400
H1837       H  0.94552004  0.03968807  0.02526596     0.13200
N1838       N  0.95025505  0.05672791  0.01119167    -0.82500
H1839       H  0.91134504  0.06024706  0.01268723     0.18000
N1840       N  0.90676644  0.04324168  0.02692688    -0.81100
H1841       H  0.95646546  0.05143692  0.01454839     0.33700
H1842       H  0.95175057  0.06477271  0.01448602     0.38200
H1843       H  0.90050316  0.04851125  0.02363779     0.33600
H1844       H  0.90517380  0.03514646  0.02380745     0.30300
H1845       H  0.93903727  0.01015625  0.02033668     0.33600
H1846       H  0.92945878  0.01911154  0.01501299     0.30300
H1847       H  0.92344310  0.02637201  0.07019138     0.38200
H1848       H  0.91356339  0.03484672  0.06467304     0.33700
C1849       C  0.91045981  0.99581419  0.08487720    -0.20100
C1850       C  0.90726078  0.98598161  0.09091355     0.36200
C1851       C  0.89967155  0.98691383  0.10002544    -0.26000
C1852       C  0.89511711  0.99739746  0.10310441     0.02600
C1853       C  0.89818112  0.00716217  0.09702524     0.27400
C1854       C  0.90582687  0.00627606  0.08801898    -0.25200
N1855       N  0.91155870  0.97509979  0.08771156    -0.82500
H1856       H  0.89722302  0.97942994  0.10472384     0.13200
C1857       C  0.88690930  0.99803467  0.11253792     0.02600
N1858       N  0.89344419  0.01793254  0.09998638    -0.81100
H1859       H  0.90824069  0.01386537  0.08349314     0.18000
C1860       C  0.88938025  0.00473811  0.12198041    -0.26000
C1861       C  0.88164833  0.00574807  0.13094828     0.36100
C1862       C  0.87132606  0.99983639  0.13045223    -0.20000
C1863       C  0.86891203  0.99307113  0.12105303    -0.25200
C1864       C  0.87653175  0.99224523  0.11199797     0.27400
H1865       H  0.89738614  0.00915280  0.12234619     0.13200
N1866       N  0.88431656  0.01255986  0.14061786    -0.82500
H1867       H  0.86092944  0.98861558  0.12067439     0.18000
N1868       N  0.87371245  0.98572221  0.10216964    -0.81100
H1869       H  0.89222705  0.01636190  0.13962246     0.33700
H1870       H  0.88493047  0.00717201  0.14760452     0.38200
H1871       H  0.86575486  0.98200754  0.10310915     0.33600
H1872       H  0.87313301  0.99130025  0.09532942     0.30300
H1873       H  0.89663076  0.02429795  0.09472829     0.33600
H1874       H  0.88476034  0.01753214  0.09849689     0.30300
H1875       H  0.90844263  0.97328003  0.07965967     0.38200
H1876       H  0.90846461  0.96880660  0.09311123     0.33700
C1877       C  0.08447352  0.93928620  0.98012298    -0.20100
C1878       C  0.08982897  0.93807519  0.96947734     0.36200
C1879       C  0.09057771  0.94741554  0.96214650    -0.26000
C1880       C  0.08607044  0.95794715  0.96511703     0.02600
C1881       C  0.08070193  0.95918036  0.97570808     0.27400
C1882       C  0.07990084  0.94984215  0.98304664    -0.25200
N1883       N  0.09424653  0.92733150  0.96598292    -0.82500
H1884       H  0.09446044  0.94640361  0.95390926     0.13200
C1885       C  0.08650794  0.96738479  0.95676182     0.02600
N1886       N  0.07615170  0.96993260  0.97899809    -0.81100
H1887       H  0.07582108  0.95088149  0.99118307     0.18000
C1888       C  0.07640516  0.97251016  0.95336614    -0.26000
C1889       C  0.07626656  0.98089619  0.94494114     0.36100
C1890       C  0.08651829  0.98434203  0.93980322    -0.20000
C1891       C  0.09665125  0.97925087  0.94325947    -0.25200
C1892       C  0.09676244  0.97086209  0.95172009     0.27400
H1893       H  0.06851479  0.96967712  0.95706233     0.13200
N1894       N  0.06568788  0.98560290  0.94132862    -0.82500
H1895       H  0.10453062  0.98187830  0.93939168     0.18000
N1896       N  0.10723756  0.96585254  0.95521309    -0.81100
H1897       H  0.05899620  0.98225840  0.94605064     0.33700
H1898       H  0.06438491  0.98309684  0.93296546     0.38200
H1899       H  0.11399394  0.96928519  0.95065022     0.33600
H1900       H  0.10851730  0.96798537  0.96368228     0.30300
H1901       H  0.07242083  0.96941530  0.98700264     0.33600
H1902       H  0.08289612  0.97558696  0.97967675     0.30300
H1903       H  0.08741339  0.92181636  0.96508168     0.38200
H1904       H  0.09807322  0.92795356  0.95803077     0.33700
C1905       C  0.09886929  0.90308427  0.99532897    -0.20100
C1906       C  0.09747893  0.89293257  0.00160223     0.36200
C1907       C  0.10600803  0.88470273  0.00136040    -0.26000
C1908       C  0.11574125  0.88616337  0.99479622     0.02600
C1909       C  0.11712427  0.89610116  0.98839084     0.27400
C1910       C  0.10871355  0.90445780  0.98873939    -0.25200
N1911       N  0.08738052  0.89084433  0.00804457    -0.82500
H1912       H  0.10495466  0.87694026  0.00612401     0.13200
C1913       C  0.12423166  0.87699650  0.99447420     0.02600
N1914       N  0.12709446  0.89767342  0.98160817    -0.81100
H1915       H  0.10994278  0.91212519  0.98387952     0.18000
C1916       C  0.12599718  0.87112671  0.98436143    -0.26000
C1917       C  0.13361950  0.86206184  0.98380841     0.36100
C1918       C  0.13978765  0.85896831  0.99355491    -0.20000
C1919       C  0.13788250  0.86480653  0.00371077    -0.25200
C1920       C  0.13019875  0.87381430  0.00425519     0.27400
H1921       H  0.12122046  0.87350202  0.97692940     0.13200
N1922       N  0.13489136  0.85584980  0.97346616    -0.82500
H1923       H  0.14260710  0.86253638  0.01119937     0.18000
N1924       N  0.12850823  0.87983737  0.01465497    -0.81100
H1925       H  0.12979523  0.85925646  0.96711641     0.33700
H1926       H  0.13197197  0.84764228  0.97494750     0.38200
H1927       H  0.13349725  0.87641566  0.02108154     0.33600
H1928       H  0.13130587  0.88812260  0.01339087     0.30300
H1929       H  0.12680280  0.90540983  0.97734082     0.33600
H1930       H  0.13399482  0.89806222  0.98708173     0.30300
H1931       H  0.08075354  0.88993510  0.00230045     0.38200
H1932       H  0.08793040  0.88318701  0.01242825     0.33700
C1933       C  0.98551842  0.93586621  0.06763294    -0.20100
C1934       C  0.97967503  0.93948103  0.07741239     0.36200
C1935       C  0.97149716  0.94795069  0.07657349    -0.26000
C1936       C  0.96887182  0.95290696  0.06615305     0.02600
C1937       C  0.97465509  0.94940637  0.05634284     0.27400
C1938       C  0.98295381  0.94096149  0.05718903    -0.25200
N1939       N  0.98213608  0.93479876  0.08829405    -0.82500
H1940       H  0.96718591  0.95072913  0.08416436     0.13200
C1941       C  0.95998414  0.96170072  0.06575130     0.02600
N1942       N  0.97199691  0.95435638  0.04556770    -0.81100
H1943       H  0.98732569  0.93825546  0.04961496     0.18000
C1944       C  0.96263519  0.97253567  0.06173102    -0.26000
C1945       C  0.95455896  0.98122396  0.06181659     0.36100
C1946       C  0.94358780  0.97898139  0.06603113    -0.20000
C1947       C  0.94097647  0.96810246  0.07000213    -0.25200
C1948       C  0.94901181  0.95942027  0.06979505     0.27400
H1949       H  0.97112079  0.97427352  0.05875698     0.13200
N1950       N  0.95756720  0.99233836  0.05791145    -0.82500
H1951       H  0.93256033  0.96630784  0.07313513     0.18000
N1952       N  0.94607084  0.94825709  0.07360998    -0.81100
H1953       H  0.96589278  0.99249084  0.05496230     0.33700
H1954       H  0.95725054  0.99775653  0.06486661     0.38200
H1955       H  0.93768035  0.94798374  0.07635599     0.33600
H1956       H  0.94664652  0.94285671  0.06665717     0.30300
H1957       H  0.97702951  0.95087522  0.03919919     0.33600
H1958       H  0.96365398  0.95221951  0.04366500     0.30300
H1959       H  0.97469933  0.93133914  0.09159731     0.38200
H1960       H  0.98469232  0.94135565  0.09360641     0.33700
C1961       C  0.01987850  0.91843540  0.05193529    -0.20100
C1962       C  0.01750035  0.91927520  0.04027989     0.36200
C1963       C  0.02647166  0.91954536  0.03246640    -0.26000
C1964       C  0.03769665  0.91892340  0.03611761     0.02600
C1965       C  0.04007532  0.91789673  0.04772854     0.27400
C1966       C  0.03112435  0.91760476  0.05553397    -0.25200
N1967       N  0.00600999  0.91966686  0.03643524    -0.82500
H1968       H  0.02473473  0.92022894  0.02350316     0.13200
C1969       C  0.04693212  0.91935991  0.02769823     0.02600
N1970       N  0.05157510  0.91735298  0.05153070    -0.81100
H1971       H  0.03293227  0.91696321  0.06448677     0.18000
C1972       C  0.05196714  0.92976370  0.02512479    -0.26000
C1973       C  0.06092654  0.93049161  0.01732943     0.36100
C1974       C  0.06485727  0.92058295  0.01198150    -0.20000
C1975       C  0.05981544  0.91015773  0.01466360    -0.25200
C1976       C  0.05084520  0.90946088  0.02243921     0.27400
H1977       H  0.04894172  0.93731468  0.02929830     0.13200
N1978       N  0.06618379  0.94120036  0.01501554    -0.82500
H1979       H  0.06278473  0.90254879  0.01055976     0.18000
N1980       N  0.04559199  0.89878621  0.02492660    -0.81100
H1981       H  0.06225360  0.94763057  0.01960243     0.33700
H1982       H  0.07450077  0.94076091  0.01791121     0.38200
H1983       H  0.04935965  0.89233999  0.02022765     0.33600
H1984       H  0.04709754  0.89691562  0.03342799     0.30300
H1985       H  0.05188350  0.91678824  0.06034541     0.33600
H1986       H  0.05508742  0.90988704  0.04842094     0.30300
H1987       H  0.00221310  0.91198070  0.03859517     0.38200
H1988       H  0.00572632  0.92026746  0.02762170     0.33700
C1989       C  0.00303609  0.86156611  0.13001983    -0.20100
C1990       C  0.99365404  0.86258417  0.12272660     0.36200
C1991       C  0.99371932  0.87097294  0.11430615    -0.26000
C1992       C  0.00297376  0.87821862  0.11301618     0.02600
C1993       C  0.01230580  0.87726387  0.12026063     0.27400
C1994       C  0.01224596  0.86894038  0.12870427    -0.25200
N1995       N  0.98424688  0.85496697  0.12368839    -0.82500
H1996       H  0.98660957  0.87179167  0.10862154     0.13200
C1997       C  0.00290077  0.88669303  0.10389526     0.02600
N1998       N  0.02174647  0.88481505  0.11904689    -0.81100
H1999       H  0.01939867  0.86827701  0.13434518     0.18000
C2000       C  0.99922711  0.89765180  0.10626450    -0.26000
C2001       C  0.99929763  0.90603316  0.09784645     0.36100
C2002       C  0.00306676  0.90329757  0.08682975    -0.20000
C2003       C  0.00681050  0.89228209  0.08455634    -0.25200
C2004       C  0.00672137  0.88392978  0.09298717     0.27400
H2005       H  0.99639783  0.89966994  0.11474051     0.13200
N2006       N  0.99577220  0.91731780  0.10051984    -0.82500
H2007       H  0.00964517  0.89012901  0.07611945     0.18000
N2008       N  0.01034427  0.87261988  0.09050907    -0.81100
H2009       H  0.99314706  0.91785442  0.10894656     0.33700
H2010       H  0.00281600  0.92258321  0.09969285     0.38200
H2011       H  0.01273536  0.87193543  0.08202547     0.33600
H2012       H  0.01756952  0.87099481  0.09528918     0.30300
H2013       H  0.02786199  0.88309702  0.12516597     0.33600
H2014       H  0.02550978  0.88323007  0.11121027     0.30300
H2015       H  0.98715299  0.84688037  0.12169626     0.38200
H2016       H  0.97803946  0.85695359  0.11774469     0.33700
C2017       C  0.20825363  0.68732489  0.54056738    -0.20100
C2018       C  0.22003044  0.68895678  0.54179854     0.36200
C2019       C  0.22458874  0.69052005  0.55267810    -0.26000
C2020       C  0.21766085  0.69043189  0.56230009     0.02600
C2021       C  0.20594636  0.68899742  0.56110332     0.27400
C2022       C  0.20136983  0.68748352  0.55028043    -0.25200
N2023       N  0.22736590  0.68875332  0.53211189    -0.82500
H2024       H  0.23359926  0.69169198  0.55369621     0.13200
C2025       C  0.22271973  0.69189875  0.57364006     0.02600
N2026       N  0.19875669  0.68906226  0.57091384    -0.81100
H2027       H  0.19233415  0.68642041  0.54945325     0.18000
C2028       C  0.22167713  0.70232835  0.57905605    -0.26000
C2029       C  0.22605944  0.70401523  0.58994517     0.36100
C2030       C  0.23176309  0.69507261  0.59549280    -0.20000
C2031       C  0.23263377  0.68455876  0.59008164    -0.25200
C2032       C  0.22812977  0.68288134  0.57920733     0.27400
H2033       H  0.21731805  0.70914747  0.57478405     0.13200
N2034       N  0.22452812  0.71471414  0.59545383    -0.82500
H2035       H  0.23694778  0.67767609  0.59429068     0.18000
N2036       N  0.22899400  0.67207242  0.57378514    -0.81100
H2037       H  0.22024183  0.72036749  0.59019770     0.33700
H2038       H  0.21934786  0.71336056  0.60249901     0.38200
H2039       H  0.23327011  0.66634648  0.57896994     0.33600
H2040       H  0.22081086  0.66891692  0.57280987     0.30300
H2041       H  0.19031555  0.68800462  0.56859172     0.33600
H2042       H  0.20088289  0.68206541  0.57587411     0.30300
H2043       H  0.22716427  0.68057567  0.52881523     0.38200
H2044       H  0.23571811  0.69029994  0.53448423     0.33700
C2045       C  0.23433784  0.59750400  0.68782704    -0.20100
C2046       C  0.23658655  0.58820400  0.69507026     0.36200
C2047       C  0.23175737  0.57760821  0.69276264    -0.26000
C2048       C  0.22508139  0.57583903  0.68316680     0.02600
C2049       C  0.22331176  0.58491649  0.67559688     0.27400
C2050       C  0.22786918  0.59563543  0.67804520    -0.25200
N2051       N  0.24379893  0.58946515  0.70473961    -0.82500
H2052       H  0.23310444  0.57068228  0.69860380     0.13200
C2053       C  0.21955913  0.56460314  0.68153041     0.02600
N2054       N  0.21684315  0.58322689  0.66547784    -0.81100
H2055       H  0.22619233  0.60260183  0.67234418     0.18000
C2056       C  0.20781597  0.56411402  0.68014679    -0.26000
C2057       C  0.20212758  0.55374393  0.67911019     0.36100
C2058       C  0.20831405  0.54352760  0.67942852    -0.20000
C2059       C  0.22004326  0.54399030  0.68102812    -0.25200
C2060       C  0.22574502  0.55440341  0.68195779     0.27400
H2061       H  0.20300872  0.57188991  0.68013177     0.13200
N2062       N  0.19004786  0.55358331  0.67802423    -0.82500
H2063       H  0.22482791  0.53620510  0.68123243     0.18000
N2064       N  0.23780844  0.55466269  0.68317569    -0.81100
H2065       H  0.18680855  0.56178909  0.67782320     0.33700
H2066       H  0.18675163  0.54971908  0.68527381     0.38200
H2067       H  0.24108500  0.54647244  0.68338342     0.33600
H2068       H  0.24115279  0.55857053  0.67597163     0.30300
H2069       H  0.21626769  0.59073197  0.66084151     0.33600
H2070       H  0.22124546  0.57748815  0.66042367     0.30300
H2071       H  0.25191840  0.59124836  0.70173964     0.38200
H2072       H  0.24438521  0.58189191  0.70926229     0.33700
C2073       C  0.24271640  0.63687649  0.67582427    -0.20100
C2074       C  0.25052254  0.64592970  0.67610096     0.36200
C2075       C  0.25015945  0.65434951  0.66766673    -0.26000
C2076       C  0.24221783  0.65398930  0.65887885     0.02600
C2077       C  0.23459560  0.64480995  0.65843272     0.27400
C2078       C  0.23497909  0.63635129  0.66683888    -0.25200
N2079       N  0.25894175  0.64646563  0.68480904    -0.82500
H2080       H  0.25621457  0.66120640  0.66787591     0.13200
C2081       C  0.24206764  0.66324266  0.65020513     0.02600
N2082       N  0.22636153  0.64419948  0.64955256    -0.81100
H2083       H  0.22898977  0.62944254  0.66651327     0.18000
C2084       C  0.24271912  0.66055344  0.63866387    -0.26000
C2085       C  0.24269207  0.66901395  0.63025618     0.36100
C2086       C  0.24217392  0.68052712  0.63342866    -0.20000
C2087       C  0.24164150  0.68320598  0.64499145    -0.25200
C2088       C  0.24141545  0.67472428  0.65337169     0.27400
H2089       H  0.24339440  0.65177892  0.63619585     0.13200
N2090       N  0.24336718  0.66591262  0.61853322    -0.82500
H2091       H  0.24111335  0.69197529  0.64751579     0.18000
N2092       N  0.24033439  0.67772953  0.66509028    -0.81100
H2093       H  0.24349172  0.65713347  0.61764217     0.33700
H2094       H  0.25107475  0.66889098  0.61539343     0.38200
H2095       H  0.23996425  0.68649773  0.66601691     0.33600
H2096       H  0.23261907  0.67453831  0.66799271     0.30300
H2097       H  0.22144214  0.63690827  0.65038033     0.33600
H2098       H  0.22090052  0.65106116  0.65049350     0.30300
H2099       H  0.26394602  0.65368467  0.68385893     0.38200
H2100       H  0.26430120  0.63953853  0.68375612     0.33700
C2101       C  0.27194802  0.77638431  0.62298251    -0.20100
C2102       C  0.27608313  0.76783954  0.61571596     0.36200
C2103       C  0.27204013  0.75674763  0.61686835    -0.26000
C2104       C  0.26411501  0.75393961  0.62520264     0.02600
C2105       C  0.26045010  0.76223953  0.63288257     0.27400
C2106       C  0.26448756  0.77338804  0.63176486    -0.25200
N2107       N  0.28430444  0.77045003  0.60712927    -0.82500
H2108       H  0.27484923  0.75028400  0.61103847     0.13200
C2109       C  0.25885654  0.74259866  0.62483170     0.02600
N2110       N  0.25244540  0.75936874  0.64157917    -0.81100
H2111       H  0.26137819  0.77985235  0.63743149     0.18000
C2112       C  0.26314732  0.73373336  0.63141017    -0.26000
C2113       C  0.25896808  0.72268059  0.63028292     0.36100
C2114       C  0.25022870  0.72041293  0.62241084    -0.20000
C2115       C  0.24581791  0.72948705  0.61609233    -0.25200
C2116       C  0.25006795  0.74048159  0.61716931     0.27400
H2117       H  0.27000641  0.73535926  0.63722365     0.13200
N2118       N  0.26411247  0.71395464  0.63688600    -0.82500
H2119       H  0.23908439  0.72800329  0.61010819     0.18000
N2120       N  0.24573981  0.74948359  0.61024608    -0.81100
H2121       H  0.26725101  0.70777167  0.63143231     0.33700
H2122       H  0.25800038  0.71038386  0.64218380     0.38200
H2123       H  0.23945059  0.74649833  0.60483837     0.33600
H2124       H  0.24188607  0.75534336  0.61559730     0.30300
H2125       H  0.25067111  0.76641348  0.64658146     0.33600
H2126       H  0.24488594  0.75712137  0.63764160     0.30300
H2127       H  0.29169822  0.77297255  0.61121524     0.38200
H2128       H  0.28634396  0.76325221  0.60245591     0.33700
C2129       C  0.27815877  0.81536485  0.63715396    -0.20100
C2130       C  0.28170295  0.81234737  0.64818538     0.36200
C2131       C  0.28290451  0.82079534  0.65646000    -0.26000
C2132       C  0.28031003  0.83212663  0.65412547     0.02600
C2133       C  0.27637152  0.83507488  0.64327949     0.27400
C2134       C  0.27551455  0.82672571  0.63488821    -0.25200
N2135       N  0.28444462  0.80083533  0.65090098    -0.82500
H2136       H  0.28591617  0.81853962  0.66480451     0.13200
C2137       C  0.28168804  0.84080509  0.66313339     0.02600
N2138       N  0.27315364  0.84652919  0.64086643    -0.81100
H2139       H  0.27262978  0.82910062  0.62653250     0.18000
C2140       C  0.28872116  0.85017961  0.66123454    -0.26000
C2141       C  0.29017330  0.85855259  0.66952334     0.36100
C2142       C  0.28452059  0.85759569  0.68003153    -0.20000
C2143       C  0.27755851  0.84810283  0.68190141    -0.25200
C2144       C  0.27602642  0.83978877  0.67358138     0.27400
H2145       H  0.29318671  0.85097437  0.65326445     0.13200
N2146       N  0.29752268  0.86789119  0.66722526    -0.82500
H2147       H  0.27308005  0.84720661  0.68984473     0.18000
N2148       N  0.26859303  0.83039487  0.67564240    -0.81100
H2149       H  0.29454687  0.87206730  0.66003082     0.33700
H2150       H  0.30554493  0.86470996  0.66538587     0.38200
H2151       H  0.26510858  0.83084194  0.68375737     0.33600
H2152       H  0.26187456  0.83104358  0.66996889     0.30300
H2153       H  0.27043550  0.84731667  0.63250205     0.33600
H2154       H  0.26621609  0.84845539  0.64598793     0.30300
H2155       H  0.27687413  0.79630263  0.65117344     0.38200
H2156       H  0.28783690  0.80027132  0.65903165     0.33700
C2157       C  0.23212361  0.80399403  0.89388898    -0.20100
C2158       C  0.23776854  0.80099582  0.90396870     0.36200
C2159       C  0.23266921  0.80323726  0.91447219    -0.26000
C2160       C  0.22211747  0.80854946  0.91516207     0.02600
C2161       C  0.21660820  0.81183737  0.90510942     0.27400
C2162       C  0.22169750  0.80958000  0.89459325    -0.25200
N2163       N  0.24877827  0.79595394  0.90353316    -0.82500
H2164       H  0.23701690  0.80097035  0.92219630     0.13200
C2165       C  0.21703529  0.81073744  0.92647998     0.02600
N2166       N  0.20579406  0.81730403  0.90561812    -0.81100
H2167       H  0.21736763  0.81195382  0.88689178     0.18000
C2168       C  0.21425785  0.82183017  0.92953097    -0.26000
C2169       C  0.20940586  0.82424996  0.94011167     0.36100
C2170       C  0.20729666  0.81537101  0.94785237    -0.20000
C2171       C  0.21033588  0.80430951  0.94491166    -0.25200
C2172       C  0.21505987  0.80187828  0.93425972     0.27400
H2173       H  0.21597401  0.82864828  0.92364331     0.13200
N2174       N  0.20679350  0.83571567  0.94308263    -0.82500
H2175       H  0.20867495  0.79748554  0.95080558     0.18000
N2176       N  0.21765353  0.79042621  0.93121847    -0.81100
H2177       H  0.20880748  0.84120928  0.93644120     0.33700
H2178       H  0.21196359  0.83794721  0.94986693     0.38200
H2179       H  0.21571042  0.78491889  0.93786871     0.33600
H2180       H  0.21241317  0.78820768  0.92448338     0.30300
H2181       H  0.20290983  0.81922960  0.89749531     0.33600
H2182       H  0.20004477  0.81154920  0.90908961     0.30300
H2183       H  0.25430004  0.80188999  0.89999474     0.38200
H2184       H  0.25174404  0.79423487  0.91167233     0.33700
C2185       C  0.20522333  0.95002470  0.80828110    -0.20100
C2186       C  0.19852603  0.94013443  0.80795108     0.36200
C2187       C  0.20363135  0.92964911  0.80579238    -0.26000
C2188       C  0.21527227  0.92877762  0.80387259     0.02600
C2189       C  0.22196313  0.93865409  0.80397141     0.27400
C2190       C  0.21684918  0.94919664  0.80606383    -0.25200
N2191       N  0.18652105  0.94077869  0.80960239    -0.82500
H2192       H  0.19848539  0.92208553  0.80551121     0.13200
C2193       C  0.22025918  0.91743950  0.80170661     0.02600
N2194       N  0.23393972  0.93789819  0.80216868    -0.81100
H2195       H  0.22200946  0.95674846  0.80631474     0.18000
C2196       C  0.22561957  0.91531989  0.79136318    -0.26000
C2197       C  0.23026768  0.90466326  0.78888310     0.36100
C2198       C  0.22948782  0.89579049  0.79698166    -0.20000
C2199       C  0.22400046  0.89800721  0.80732467    -0.25200
C2200       C  0.21941383  0.90868456  0.80975971     0.27400
H2201       H  0.22614385  0.92204852  0.78515656     0.13200
N2202       N  0.23573514  0.90293612  0.77816274    -0.82500
H2203       H  0.22324893  0.89138192  0.81360773     0.18000
N2204       N  0.21391441  0.91069259  0.82041381    -0.81100
H2205       H  0.23493382  0.91006941  0.77300107     0.33700
H2206       H  0.24436570  0.90200371  0.77971388     0.38200
H2207       H  0.21389938  0.90337697  0.82538082     0.33600
H2208       H  0.21867706  0.91670144  0.82476711     0.30300
H2209       H  0.23764686  0.94590455  0.80251612     0.33600
H2210       H  0.23732593  0.93322635  0.80885794     0.30300
H2211       H  0.18319084  0.94547706  0.80290432     0.38200
H2212       H  0.18285314  0.93275902  0.80916227     0.33700
C2213       C  0.24813590  0.86823875  0.77174640    -0.20100
C2214       C  0.24353716  0.87259452  0.76161869     0.36200
C2215       C  0.24931202  0.87097725  0.75136248    -0.26000
C2216       C  0.25954578  0.86508657  0.75100344     0.02600
C2217       C  0.26383108  0.86016517  0.76095397     0.27400
C2218       C  0.25804723  0.86173645  0.77124703    -0.25200
N2219       N  0.23307980  0.87873496  0.76179527    -0.82500
H2220       H  0.24603381  0.87467218  0.74365215     0.13200
C2221       C  0.26619967  0.86528584  0.74038219     0.02600
N2222       N  0.27418031  0.85386327  0.76058060    -0.81100
H2223       H  0.26154206  0.85827790  0.77896694     0.18000
C2224       C  0.27562166  0.87240901  0.73973106    -0.26000
C2225       C  0.28132426  0.87418209  0.72944623     0.36100
C2226       C  0.27747844  0.86870299  0.71956174    -0.20000
C2227       C  0.26839191  0.86107253  0.72040198    -0.25200
C2228       C  0.26266809  0.85937226  0.73071076     0.27400
H2229       H  0.27830493  0.87689304  0.74723240     0.13200
N2230       N  0.29091771  0.88161426  0.72901038    -0.82500
H2231       H  0.26543328  0.85677064  0.71290292     0.18000
N2232       N  0.25311263  0.85191188  0.73135494    -0.81100
H2233       H  0.29251952  0.88507950  0.73696513     0.33700
H2234       H  0.29796492  0.87674365  0.72690448     0.38200
H2235       H  0.25153203  0.84826694  0.72347693     0.33600
H2236       H  0.25522776  0.84530644  0.73683164     0.30300
H2237       H  0.27624105  0.85085048  0.76862875     0.33600
H2238       H  0.27279338  0.84677486  0.75552084     0.30300
H2239       H  0.22675111  0.87313701  0.76439865     0.38200
H2240       H  0.23092068  0.88143633  0.75366357     0.33700
C2241       C  0.23866829  0.85733384  0.81100603    -0.20100
C2242       C  0.23043536  0.85731198  0.81970098     0.36200
C2243       C  0.23071430  0.84885535  0.82808175    -0.26000
C2244       C  0.23915928  0.84054303  0.82820301     0.02600
C2245       C  0.24764098  0.84080709  0.81971658     0.27400
C2246       C  0.24707884  0.84897412  0.81111556    -0.25200
N2247       N  0.22170456  0.86572895  0.81993611    -0.82500
H2248       H  0.22422589  0.84868648  0.83455425     0.13200
C2249       C  0.23887954  0.83177828  0.83728451     0.02600
N2250       N  0.25709760  0.83318532  0.81965391    -0.81100
H2251       H  0.25356095  0.84898367  0.80463400     0.18000
C2252       C  0.23809427  0.82029978  0.83439777    -0.26000
C2253       C  0.23826895  0.81179082  0.84274831     0.36100
C2254       C  0.23907916  0.81484351  0.85426208    -0.20000
C2255       C  0.23931908  0.82635184  0.85713163    -0.25200
C2256       C  0.23933259  0.83482527  0.84879097     0.27400
H2257       H  0.23747748  0.81799109  0.82556472     0.13200
N2258       N  0.23752307  0.80010843  0.83957169    -0.82500
H2259       H  0.23988264  0.82876652  0.86593755     0.18000
N2260       N  0.24001159  0.84651852  0.85195520    -0.81100
H2261       H  0.23705193  0.79931720  0.83078578     0.33700
H2262       H  0.22994754  0.79692778  0.84283581     0.38200
H2263       H  0.24020431  0.84734635  0.86074840     0.33600
H2264       H  0.24768401  0.84968105  0.84891170     0.30300
H2265       H  0.26443940  0.83807116  0.82008242     0.33600
H2266       H  0.25725489  0.82807793  0.82683640     0.30300
H2267       H  0.21659552  0.86446667  0.81286085     0.38200
H2268       H  0.21652135  0.86466808  0.82702757     0.33700
C2269       C  0.27703077  0.72320735  0.86422811    -0.20100
C2270       C  0.26706703  0.72578913  0.85822208     0.36200
C2271       C  0.26323169  0.73704812  0.85784298    -0.26000
C2272       C  0.26922167  0.74573236  0.86322227     0.02600
C2273       C  0.27961482  0.74325435  0.86844977     0.27400
C2274       C  0.28334675  0.73202074  0.86899260    -0.25200
N2275       N  0.26045167  0.71692217  0.85326581    -0.82500
H2276       H  0.25523541  0.73896882  0.85386224     0.13200
C2277       C  0.26385053  0.75698147  0.86472620     0.02600
N2278       N  0.28612531  0.75213627  0.87353101    -0.81100
H2279       H  0.29107818  0.73007354  0.87346245     0.18000
C2280       C  0.26176862  0.76071197  0.87574743    -0.26000
C2281       C  0.25655506  0.77112121  0.87787326     0.36100
C2282       C  0.25296901  0.77797134  0.86869647    -0.20000
C2283       C  0.25512509  0.77419004  0.85759823    -0.25200
C2284       C  0.26055126  0.76379284  0.85553185     0.27400
H2285       H  0.26427896  0.75542336  0.88279537     0.13200
N2286       N  0.25511246  0.77475771  0.88935841    -0.82500
H2287       H  0.25249053  0.77930030  0.85047605     0.18000
N2288       N  0.26272185  0.76012778  0.84416340    -0.81100
H2289       H  0.25765318  0.76848290  0.89503833     0.33700
H2290       H  0.26059658  0.78156423  0.89056184     0.38200
H2291       H  0.25974534  0.76607781  0.83835080     0.33600
H2292       H  0.27147404  0.75974573  0.84308976     0.30300
H2293       H  0.29350128  0.74890754  0.87712787     0.33600
H2294       H  0.28864768  0.75763143  0.86706713     0.30300
H2295       H  0.26507310  0.71366846  0.84648175     0.38200
H2296       H  0.25301573  0.72017811  0.84982130     0.33700
C2297       C  0.27395194  0.62733599  0.77026815    -0.20100
C2298       C  0.27943332  0.62283464  0.76064579     0.36200
C2299       C  0.27421318  0.62357907  0.74999987    -0.26000
C2300       C  0.26365487  0.62873910  0.74872437     0.02600
C2301       C  0.25837021  0.63364811  0.75820252     0.27400
C2302       C  0.26360215  0.63295925  0.76888186    -0.25200
N2303       N  0.29027074  0.61749602  0.76171868    -0.82500
H2304       H  0.27827809  0.61989299  0.74267185     0.13200
C2305       C  0.25803236  0.62828048  0.73750264     0.02600
N2306       N  0.24763279  0.63912737  0.75695886    -0.81100
H2307       H  0.25938986  0.63646257  0.77621437     0.18000
C2308       C  0.24918666  0.62060767  0.73585955    -0.26000
C2309       C  0.24449842  0.61889518  0.72507278     0.36100
C2310       C  0.24885917  0.62491588  0.71564460    -0.20000
C2311       C  0.25734328  0.63303164  0.71745774    -0.25200
C2312       C  0.26196440  0.63476111  0.72829080     0.27400
H2313       H  0.24611516  0.61573346  0.74300118     0.13200
N2314       N  0.23535235  0.61103519  0.72368510    -0.82500
H2315       H  0.26065784  0.63777831  0.71034402     0.18000
N2316       N  0.27078344  0.64291795  0.72996506    -0.81100
H2317       H  0.23323582  0.60725536  0.73140351     0.33700
H2318       H  0.22827991  0.61563446  0.72111414     0.38200
H2319       H  0.27277420  0.64696713  0.72235089     0.33600
H2320       H  0.26764008  0.64913077  0.73538484     0.30300
H2321       H  0.24483454  0.64224414  0.76473566     0.33600
H2322       H  0.24882098  0.64612582  0.75167971     0.30300
H2323       H  0.29602009  0.62365420  0.76433502     0.38200
H2324       H  0.29311394  0.61458985  0.75387595     0.33700
C2325       C  0.28159519  0.64100800  0.80923585    -0.20100
C2326       C  0.27300246  0.64929185  0.80978583     0.36200
C2327       C  0.27321504  0.65742368  0.81848180    -0.26000
C2328       C  0.28199921  0.65776622  0.82644281     0.02600
C2329       C  0.29066461  0.64961217  0.82577007     0.27400
C2330       C  0.29026860  0.64127276  0.81732758    -0.25200
N2331       N  0.26389731  0.64925966  0.80178232    -0.82500
H2332       H  0.26646950  0.66356274  0.81905015     0.13200
C2333       C  0.28206467  0.66668420  0.83541121     0.02600
N2334       N  0.29994342  0.64991748  0.83357119    -0.81100
H2335       H  0.29695536  0.63505532  0.81692698     0.18000
C2336       C  0.28336576  0.66356219  0.84679464    -0.26000
C2337       C  0.28390486  0.67167541  0.85543231     0.36100
C2338       C  0.28271897  0.68329379  0.85281668    -0.20000
C2339       C  0.28123756  0.68637887  0.84140010    -0.25200
C2340       C  0.28107394  0.67826621  0.83270292     0.27400
H2341       H  0.28403347  0.65470920  0.84902741     0.13200
N2342       N  0.28565987  0.66797266  0.86682561    -0.82500
H2343       H  0.28042544  0.69521085  0.83916002     0.18000
N2344       N  0.28013709  0.68178376  0.82110232    -0.81100
H2345       H  0.29327678  0.66353283  0.86711495     0.33700
H2346       H  0.27915476  0.66239892  0.86900178     0.38200
H2347       H  0.27946117  0.69056722  0.82052649     0.33600
H2348       H  0.28764265  0.67957759  0.81700409     0.30300
H2349       H  0.30557881  0.64331934  0.83198944     0.33600
H2350       H  0.30437574  0.65742656  0.83213645     0.30300
H2351       H  0.26718044  0.65196612  0.79402577     0.38200
H2352       H  0.25779298  0.65522336  0.80401560     0.33700
C2353       C  0.81251037  0.89922204  0.21571593    -0.20100
C2354       C  0.80363219  0.90496131  0.21011737     0.36200
C2355       C  0.80570466  0.91550627  0.20500818    -0.26000
C2356       C  0.81644803  0.92043229  0.20522560     0.02600
C2357       C  0.82544079  0.91452609  0.21031178     0.27400
C2358       C  0.82338927  0.90398716  0.21551633    -0.25200
N2359       N  0.79253875  0.90006073  0.20957440    -0.82500
H2360       H  0.79886197  0.92000371  0.20094198     0.13200
C2361       C  0.81804834  0.93192429  0.20034253     0.02600
N2362       N  0.83659293  0.91930885  0.21022323    -0.81100
H2363       H  0.83025860  0.89961753  0.21966670     0.18000
C2364       C  0.82027715  0.94103582  0.20757173    -0.26000
C2365       C  0.82165554  0.95208658  0.20331499     0.36100
C2366       C  0.82087814  0.95402919  0.19156596    -0.20000
C2367       C  0.81861080  0.94489355  0.18435645    -0.25200
C2368       C  0.81707058  0.93389130  0.18862875     0.27400
H2369       H  0.82093130  0.93949698  0.21657869     0.13200
N2370       N  0.82409609  0.96126323  0.21084477    -0.82500
H2371       H  0.81801494  0.94636785  0.17533413     0.18000
N2372       N  0.81455719  0.92470074  0.18113190    -0.81100
H2373       H  0.82431245  0.95842133  0.21921676     0.33700
H2374       H  0.83220884  0.96419175  0.20893353     0.38200
H2375       H  0.81401360  0.92757230  0.17278589     0.33600
H2376       H  0.82134049  0.91907247  0.18142798     0.30300
H2377       H  0.84226272  0.91394679  0.21434135     0.33600
H2378       H  0.83923999  0.91981389  0.20179800     0.30300
H2379       H  0.79313714  0.89266737  0.20480297     0.38200
H2380       H  0.78698491  0.90539546  0.20526664     0.33700
C2381       C  0.90640775  0.80681675  0.22193119    -0.20100
C2382       C  0.91166647  0.79910012  0.21452308     0.36200
C2383       C  0.92269664  0.80126293  0.21062004    -0.26000
C2384       C  0.92863006  0.81095351  0.21399914     0.02600
C2385       C  0.92327846  0.81874090  0.22130574     0.27400
C2386       C  0.91218240  0.81665198  0.22506962    -0.25200
N2387       N  0.90572165  0.78917046  0.21088262    -0.82500
H2388       H  0.92664611  0.79542560  0.20479375     0.13200
C2389       C  0.94019439  0.81310210  0.20937385     0.02600
N2390       N  0.92921125  0.82863655  0.22504727    -0.81100
H2391       H  0.90817207  0.82251978  0.23082594     0.18000
C2392       C  0.94239979  0.82338228  0.20390064    -0.26000
C2393       C  0.95300016  0.82572167  0.19908913     0.36100
C2394       C  0.96154219  0.81736038  0.19922544    -0.20000
C2395       C  0.95945906  0.80716775  0.20497885    -0.25200
C2396       C  0.94891392  0.80498986  0.21013486     0.27400
H2397       H  0.93575975  0.82963520  0.20331689     0.13200
N2398       N  0.95513007  0.83665127  0.19421022    -0.82500
H2399       H  0.96598681  0.80078037  0.20525163     0.18000
N2400       N  0.94701702  0.79457330  0.21611135    -0.81100
H2401       H  0.94797835  0.84178452  0.19476807     0.33700
H2402       H  0.96139454  0.84053518  0.19904630     0.38200
H2403       H  0.95423750  0.78951364  0.21587010     0.33600
H2404       H  0.94560143  0.79656302  0.22460160     0.30300
H2405       H  0.92409890  0.83350390  0.23034680     0.33600
H2406       H  0.93605634  0.82594525  0.22991183     0.30300
H2407       H  0.89875634  0.79182949  0.20617139     0.38200
H2408       H  0.91075405  0.78436785  0.20544809     0.33700
C2409       C  0.86778490  0.81856028  0.23276869    -0.20100
C2410       C  0.85990885  0.81986665  0.24173574     0.36200
C2411       C  0.85156762  0.82823589  0.24109085    -0.26000
C2412       C  0.85060416  0.83524313  0.23156360     0.02600
C2413       C  0.85821215  0.83379866  0.22247891     0.27400
C2414       C  0.86680492  0.82563999  0.22326155    -0.25200
N2415       N  0.86025561  0.81303298  0.25171868    -0.82500
H2416       H  0.84580668  0.82931503  0.24813563     0.13200
C2417       C  0.84181664  0.84425923  0.23127356     0.02600
N2418       N  0.85708849  0.84054612  0.21242472    -0.81100
H2419       H  0.87263114  0.82463760  0.21626245     0.18000
C2420       C  0.84516460  0.85550053  0.22963718    -0.26000
C2421       C  0.83727574  0.86425887  0.22886752     0.36100
C2422       C  0.82555103  0.86187586  0.22989317    -0.20000
C2423       C  0.82225280  0.85059609  0.23188332    -0.25200
C2424       C  0.83022526  0.84178354  0.23249888     0.27400
H2425       H  0.85406531  0.85750319  0.22889658     0.13200
N2426       N  0.84156316  0.87546276  0.22727091    -0.82500
H2427       H  0.81337377  0.84856508  0.23271414     0.18000
N2428       N  0.82657945  0.83031723  0.23418134    -0.81100
H2429       H  0.83844070  0.88064622  0.23369389     0.33700
H2430       H  0.83897436  0.87848683  0.21939525     0.38200
H2431       H  0.81779802  0.82991712  0.23497527     0.33600
H2432       H  0.82868831  0.82577768  0.22691110     0.30300
H2433       H  0.86333173  0.83846586  0.20652845     0.33600
H2434       H  0.84934727  0.83850656  0.20872920     0.30300
H2435       H  0.85844177  0.80470838  0.24948060     0.38200
H2436       H  0.86835035  0.81349571  0.25517941     0.33700
C2437       C  0.73011316  0.87523301  0.25898194    -0.20100
C2438       C  0.73888173  0.88182167  0.26372336     0.36200
C2439       C  0.74996264  0.88058252  0.25970004    -0.26000
C2440       C  0.75257632  0.87277936  0.25122457     0.02600
C2441       C  0.74406690  0.86558748  0.24708310     0.27400
C2442       C  0.73290696  0.86684092  0.25105196    -0.25200
N2443       N  0.73652116  0.88983756  0.27252420    -0.82500
H2444       H  0.75659390  0.88596516  0.26296357     0.13200
C2445       C  0.76397398  0.87326040  0.24600656     0.02600
N2446       N  0.74671320  0.85733849  0.23859802    -0.81100
H2447       H  0.72629400  0.86162570  0.24751077     0.18000
C2448       C  0.77185663  0.86465003  0.24791013    -0.26000
C2449       C  0.78302488  0.86551711  0.24375947     0.36100
C2450       C  0.78630076  0.87520162  0.23742061    -0.20000
C2451       C  0.77816500  0.88365241  0.23542369    -0.25200
C2452       C  0.76711536  0.88275746  0.23957375     0.27400
H2453       H  0.76935688  0.85737414  0.25289749     0.13200
N2454       N  0.79095689  0.85664352  0.24607218    -0.82500
H2455       H  0.78036025  0.89108963  0.23055258     0.18000
N2456       N  0.75901825  0.89151694  0.23732445    -0.81100
H2457       H  0.78701913  0.84995681  0.25032317     0.33700
H2458       H  0.79697975  0.85987919  0.25163598     0.38200
H2459       H  0.76266177  0.89801877  0.23255483     0.33600
H2460       H  0.75263480  0.88802332  0.23234714     0.30300
H2461       H  0.73952518  0.85267788  0.23649096     0.33600
H2462       H  0.74917065  0.86168194  0.23128766     0.30300
H2463       H  0.73374550  0.88529385  0.27959635     0.38200
H2464       H  0.74387082  0.89406566  0.27495703     0.33700
C2465       C  0.64856972  0.81909412  0.25755136    -0.20100
C2466       C  0.65756035  0.81968434  0.24966258     0.36200
C2467       C  0.66579570  0.82819057  0.25074203    -0.26000
C2468       C  0.66526844  0.83612751  0.25950597     0.02600
C2469       C  0.65622061  0.83568633  0.26725985     0.27400
C2470       C  0.64795541  0.82721912  0.26617936    -0.25200
N2471       N  0.65818305  0.81183415  0.24043748    -0.82500
H2472       H  0.67265386  0.82869885  0.24468186     0.13200
C2473       C  0.67409195  0.84504754  0.26030260     0.02600
N2474       N  0.65550196  0.84382304  0.27622744    -0.81100
H2475       H  0.64108277  0.82686295  0.27222990     0.18000
C2476       C  0.67087223  0.85635166  0.25879156    -0.26000
C2477       C  0.67878378  0.86516627  0.25941905     0.36100
C2478       C  0.69025175  0.86271792  0.26155052    -0.20000
C2479       C  0.69349071  0.85137744  0.26286810    -0.25200
C2480       C  0.68559252  0.84254363  0.26245449     0.27400
H2481       H  0.66212368  0.85835264  0.25704373     0.13200
N2482       N  0.67512966  0.87655267  0.25762085    -0.82500
H2483       H  0.70223104  0.84932571  0.26457987     0.18000
N2484       N  0.68957949  0.83124676  0.26448915    -0.81100
H2485       H  0.66893106  0.87840798  0.26364035     0.33700
H2486       H  0.67143061  0.87704114  0.24962165     0.38200
H2487       H  0.69304357  0.83106135  0.27260589     0.33600
H2488       H  0.68301837  0.82538116  0.26460143     0.30300
H2489       H  0.64830597  0.84239926  0.28116587     0.33600
H2490       H  0.66245471  0.84259601  0.28150924     0.30300
H2491       H  0.66534808  0.81337215  0.23548671     0.38200
H2492       H  0.65120820  0.81328793  0.23524125     0.33700
C2493       C  0.96208233  0.68525602  0.30075764    -0.20100
C2494       C  0.95355423  0.67687712  0.30133955     0.36200
C2495       C  0.94284904  0.67908788  0.29676762    -0.26000
C2496       C  0.94049284  0.68932762  0.29131719     0.02600
C2497       C  0.94910499  0.69752806  0.29029738     0.27400
C2498       C  0.95978927  0.69542307  0.29505886    -0.25200
N2499       N  0.95579812  0.66606747  0.30640144    -0.82500
H2500       H  0.93624328  0.67279450  0.29753046     0.13200
C2501       C  0.92883381  0.69144597  0.28713337     0.05000
N2502       N  0.94694768  0.70796194  0.28445828    -0.81100
H2503       H  0.96628442  0.70184337  0.29449319     0.18000
C2504       C  0.92290366  0.70086035  0.29114807    -0.26000
C2505       C  0.91179406  0.70304941  0.28766895     0.36100
C2506       C  0.90638345  0.69554236  0.28015619    -0.20000
C2507       C  0.91221011  0.68599424  0.27629526    -0.25200
C2508       C  0.92346443  0.68397530  0.27955129     0.27400
H2509       H  0.92695739  0.70650075  0.29708469     0.13200
N2510       N  0.90595938  0.71287183  0.29175691    -0.82500
H2511       H  0.90813703  0.68037571  0.27035168     0.18000
N2512       N  0.92956248  0.67453944  0.27498554    -0.81100
H2513       H  0.91113982  0.71757590  0.29711936     0.33700
H2514       H  0.89912565  0.71008507  0.29663275     0.38200
H2515       H  0.92445173  0.66991513  0.26948885     0.33600
H2516       H  0.93621941  0.67776323  0.27013003     0.30300
H2517       H  0.95412533  0.71310449  0.28448544     0.33600
H2518       H  0.94530293  0.70601374  0.27600778     0.30300
H2519       H  0.96190560  0.66205990  0.30144384     0.38200
H2520       H  0.94861748  0.66093254  0.30621951     0.33700
C2521       C  0.88171812  0.72396277  0.26335999    -0.20100
C2522       C  0.87204465  0.72788303  0.25750150     0.36200
C2523       C  0.87180936  0.73904894  0.25334887    -0.26000
C2524       C  0.88083588  0.74645405  0.25517545     0.02600
C2525       C  0.89029324  0.74276887  0.26126860     0.27400
C2526       C  0.89063539  0.73163511  0.26529763    -0.25200
N2527       N  0.86252757  0.72061215  0.25568727    -0.82500
H2528       H  0.86454032  0.74202848  0.24867716     0.13200
C2529       C  0.88056705  0.75796287  0.25030948     0.02600
N2530       N  0.89958845  0.75033564  0.26321131    -0.81100
H2531       H  0.89806559  0.72895631  0.26987739     0.18000
C2532       C  0.87863392  0.76722546  0.25740311    -0.26000
C2533       C  0.87922731  0.77828075  0.25321311     0.36100
C2534       C  0.88172747  0.78014128  0.24166349    -0.20000
C2535       C  0.88361668  0.77084103  0.23458525    -0.25200
C2536       C  0.88309789  0.75975481  0.23880654     0.27400
H2537       H  0.87692130  0.76584561  0.26630498     0.13200
N2538       N  0.87782858  0.78742248  0.26097623    -0.82500
H2539       H  0.88571517  0.77225978  0.22577071     0.18000
N2540       N  0.88538716  0.75031268  0.23154721    -0.81100
H2541       H  0.87088638  0.79218375  0.25843404     0.33700
H2542       H  0.88503233  0.79251889  0.26062999     0.38200
H2543       H  0.88706419  0.75307205  0.22330872     0.33600
H2544       H  0.89276258  0.74643818  0.23444044     0.30300
H2545       H  0.90588430  0.74636207  0.26794287     0.33600
H2546       H  0.90317768  0.75229204  0.25536191     0.30300
H2547       H  0.85877153  0.71914031  0.26356264     0.38200
H2548       H  0.85642537  0.72464740  0.25075612     0.33700
C2549       C  0.81476758  0.60167836  0.27385914    -0.20100
C2550       C  0.82320531  0.59940989  0.28200184     0.36200
C2551       C  0.82510494  0.58820465  0.28550095    -0.26000
C2552       C  0.81895801  0.57918062  0.28092412     0.02600
C2553       C  0.81083230  0.58136915  0.27253044     0.27400
C2554       C  0.80875744  0.59257125  0.26916655    -0.25200
N2555       N  0.82948636  0.60845682  0.28707496    -0.82500
H2556       H  0.83131312  0.58649616  0.29198973     0.13200
C2557       C  0.82088726  0.56754956  0.28531350     0.02600
N2558       N  0.80471250  0.57219965  0.26747700    -0.81100
H2559       H  0.80238802  0.59419255  0.26281570     0.18000
C2560       C  0.81186487  0.56152542  0.29016562    -0.26000
C2561       C  0.81349961  0.55079427  0.29504747     0.36100
C2562       C  0.82440838  0.54601040  0.29509601    -0.20000
C2563       C  0.83339173  0.55200541  0.29013771    -0.25200
C2564       C  0.83172063  0.56264039  0.28511680     0.27400
H2565       H  0.80356704  0.56535311  0.29040048     0.13200
N2566       N  0.80421051  0.54493736  0.30026497    -0.82500
H2567       H  0.84174917  0.54830475  0.29006940     0.18000
N2568       N  0.84095907  0.56845904  0.27975854    -0.81100
H2569       H  0.79676240  0.54958847  0.29943873     0.33700
H2570       H  0.80588145  0.54438492  0.30892138     0.38200
H2571       H  0.84837087  0.56371609  0.28035487     0.33600
H2572       H  0.83908793  0.56913347  0.27115163     0.30300
H2573       H  0.79900352  0.57522719  0.26147017     0.33600
H2574       H  0.81053433  0.56719950  0.26311860     0.30300
H2575       H  0.83505102  0.61157570  0.28094521     0.38200
H2576       H  0.83455032  0.60541001  0.29362927     0.33700
C2577       C  0.82478817  0.64183504  0.26764719    -0.20100
C2578       C  0.83634661  0.63967791  0.26550097     0.36200
C2579       C  0.84425883  0.64848682  0.26642179    -0.26000
C2580       C  0.84095016  0.65945395  0.26934086     0.02600
C2581       C  0.82936273  0.66170802  0.27130604     0.27400
C2582       C  0.82145088  0.65289608  0.27034988    -0.25200
N2583       N  0.84001776  0.62859846  0.26219765    -0.82500
H2584       H  0.85310448  0.64682007  0.26478343     0.13200
C2585       C  0.84983339  0.66832357  0.27002002     0.02600
N2586       N  0.82531366  0.67273194  0.27436935    -0.81100
H2587       H  0.81263444  0.65467773  0.27201527     0.18000
C2588       C  0.85104633  0.67585748  0.26093624    -0.26000
C2589       C  0.85961363  0.68411492  0.26079666     0.36100
C2590       C  0.86723051  0.68484631  0.26996022    -0.20000
C2591       C  0.86607036  0.67717591  0.27898802    -0.25200
C2592       C  0.85746342  0.66900099  0.27919253     0.27400
H2593       H  0.84529947  0.67521916  0.25385579     0.13200
N2594       N  0.86086749  0.69138731  0.25114158    -0.82500
H2595       H  0.87184962  0.67760659  0.28605804     0.18000
N2596       N  0.85680554  0.66155561  0.28880496    -0.81100
H2597       H  0.85562893  0.68872342  0.24456889     0.33700
H2598       H  0.85786402  0.69931154  0.25350210     0.38200
H2599       H  0.85521444  0.66651719  0.29592706     0.33600
H2600       H  0.85005173  0.65593727  0.28819030     0.30300
H2601       H  0.82175536  0.67210346  0.28244424     0.33600
H2602       H  0.83187011  0.67858225  0.27497010     0.30300
H2603       H  0.83641456  0.62684367  0.25433844     0.38200
H2604       H  0.84876511  0.62841839  0.26102993     0.33700
C2605       C  0.63644914  0.72289857  0.22977607    -0.20100
C2606       C  0.62743104  0.72833096  0.23541209     0.36200
C2607       C  0.62850196  0.73968739  0.23857896    -0.26000
C2608       C  0.63832900  0.74588349  0.23623649     0.02600
C2609       C  0.64754164  0.74037119  0.23089867     0.27400
C2610       C  0.64652446  0.72890141  0.22790891    -0.25200
N2611       N  0.61717844  0.72229595  0.23791456    -0.82500
H2612       H  0.62152601  0.74382385  0.24282129     0.13200
C2613       C  0.63832089  0.75809767  0.23927400     0.02600
N2614       N  0.65785694  0.74613734  0.22804077    -0.81100
H2615       H  0.65348231  0.72481538  0.22359468     0.18000
C2616       C  0.64551494  0.76212898  0.24778367    -0.26000
C2617       C  0.64465253  0.77332207  0.25175561     0.36100
C2618       C  0.63622230  0.78047805  0.24731885    -0.20000
C2619       C  0.62919308  0.77649742  0.23868847    -0.25200
C2620       C  0.63026024  0.76546064  0.23450836     0.27400
H2621       H  0.65160242  0.75642761  0.25152858     0.13200
N2622       N  0.65183459  0.77720829  0.26070961    -0.82500
H2623       H  0.62275441  0.78201874  0.23526767     0.18000
N2624       N  0.62301223  0.76157781  0.22559927    -0.81100
H2625       H  0.65718911  0.77073077  0.26339758     0.33700
H2626       H  0.65704637  0.78352169  0.25737140     0.38200
H2627       H  0.61748037  0.76797294  0.22307963     0.33600
H2628       H  0.62811460  0.75977213  0.21861193     0.30300
H2629       H  0.65873384  0.74589594  0.21924844     0.33600
H2630       H  0.65755277  0.75465911  0.23019488     0.30300
H2631       H  0.61916917  0.71586483  0.24364044     0.38200
H2632       H  0.61134145  0.72753423  0.24196049     0.33700
C2633       C  0.78588513  0.62799058  0.26024364    -0.20100
C2634       C  0.77676140  0.62212072  0.26527332     0.36200
C2635       C  0.76603157  0.62262805  0.26028209    -0.26000
C2636       C  0.76419913  0.62872175  0.25026433     0.02600
C2637       C  0.77318757  0.63501940  0.24551933     0.27400
C2638       C  0.78390042  0.63473026  0.25067295    -0.25200
N2639       N  0.77845795  0.61554427  0.27536302    -0.82500
H2640       H  0.75908026  0.61801533  0.26408137     0.13200
C2641       C  0.75297638  0.62789527  0.24462085     0.02600
N2642       N  0.77153616  0.64128909  0.23523841    -0.81100
H2643       H  0.79088253  0.63923388  0.24680432     0.18000
C2644       C  0.74681778  0.63770306  0.24209851    -0.26000
C2645       C  0.73615012  0.63713523  0.23685001     0.36100
C2646       C  0.73135873  0.62646420  0.23434503    -0.20000
C2647       C  0.73763595  0.61668313  0.23686041    -0.25200
C2648       C  0.74837298  0.61727985  0.24181261     0.27400
H2649       H  0.75037036  0.64585395  0.24422635     0.13200
N2650       N  0.73031133  0.64736254  0.23394655    -0.82500
H2651       H  0.73417805  0.60844065  0.23495170     0.18000
N2652       N  0.75467557  0.60711834  0.24392369    -0.81100
H2653       H  0.73490108  0.65443161  0.23655261     0.33700
H2654       H  0.72992532  0.64779177  0.22512724     0.38200
H2655       H  0.75008958  0.60000054  0.24144570     0.33600
H2656       H  0.76190462  0.60737904  0.23884108     0.30300
H2657       H  0.77896355  0.64545497  0.23287201     0.33600
H2658       H  0.76976567  0.63549089  0.22883440     0.30300
H2659       H  0.78071114  0.62111288  0.28181738     0.38200
H2660       H  0.77094003  0.61165034  0.27790334     0.33700
C2661       C  0.69339433  0.64125888  0.22389857    -0.20100
C2662       C  0.69075115  0.64785977  0.23351977     0.36200
C2663       C  0.68226710  0.65610763  0.23287328    -0.26000
C2664       C  0.67644912  0.65813704  0.22275963     0.02600
C2665       C  0.67918890  0.65177306  0.21308250     0.27400
C2666       C  0.68752753  0.64331936  0.21378557    -0.25200
N2667       N  0.69627725  0.64617029  0.24414044    -0.82500
H2668       H  0.68020669  0.66100015  0.24032426     0.13200
C2669       C  0.66756891  0.66701522  0.22239061     0.02600
N2670       N  0.67360576  0.65403982  0.20254769    -0.81100
H2671       H  0.68954520  0.63837403  0.20635927     0.18000
C2672       C  0.67051515  0.67809231  0.21936725    -0.26000
C2673       C  0.66240120  0.68671932  0.21897539     0.36100
C2674       C  0.65097919  0.68429298  0.22165398    -0.20000
C2675       C  0.64805365  0.67312513  0.22454727    -0.25200
C2676       C  0.65622068  0.66448597  0.22497638     0.27400
H2677       H  0.67920844  0.68004036  0.21725362     0.13200
N2678       N  0.66596728  0.69772961  0.21541674    -0.82500
H2679       H  0.63934926  0.67114113  0.22657459     0.18000
N2680       N  0.65306376  0.65318306  0.22813861    -0.81100
H2681       H  0.66467371  0.70339844  0.22203750     0.33700
H2682       H  0.66108023  0.70019652  0.20849452     0.38200
H2683       H  0.64442892  0.65275357  0.22993515     0.33600
H2684       H  0.65444331  0.64797187  0.22115831     0.30300
H2685       H  0.67674282  0.64879085  0.19618412     0.33600
H2686       H  0.66508107  0.65198918  0.20354489     0.30300
H2687       H  0.69537203  0.63770373  0.24650192     0.38200
H2688       H  0.70485126  0.64799466  0.24315841     0.33700
C2689       C  0.90867814  0.22313172  0.79997061    -0.20100
C2690       C  0.91527007  0.21801922  0.79138175     0.36200
C2691       C  0.92575023  0.21322497  0.79412957    -0.26000
C2692       C  0.92977203  0.21338080  0.80522653     0.02600
C2693       C  0.92316629  0.21820501  0.81386120     0.27400
C2694       C  0.91264514  0.22299904  0.81116053    -0.25200
N2695       N  0.91130385  0.21764914  0.77991265    -0.82500
H2696       H  0.93087006  0.20939698  0.78757603     0.13200
C2697       C  0.94103433  0.20857253  0.80759583     0.02600
N2698       N  0.92728096  0.21839186  0.82527557    -0.81100
H2699       H  0.90766874  0.22691166  0.81776854     0.18000
C2700       C  0.95043739  0.21575301  0.80788361    -0.26000
C2701       C  0.96132997  0.21146530  0.80985394     0.36100
C2702       C  0.96279278  0.19974301  0.81149963    -0.20000
C2703       C  0.95331730  0.19259068  0.81120601    -0.25200
C2704       C  0.94245205  0.19689019  0.80922795     0.27400
H2705       H  0.94924152  0.22473552  0.80660457     0.13200
N2706       N  0.97082731  0.21899318  0.81046103    -0.82500
H2707       H  0.95441043  0.18359281  0.81245620     0.18000
N2708       N  0.93286145  0.18946032  0.80876895    -0.81100
H2709       H  0.96830107  0.22732539  0.80900371     0.33700
H2710       H  0.97389864  0.21869313  0.81873224     0.38200
H2711       H  0.93535737  0.18108373  0.81000437     0.33600
H2712       H  0.92753557  0.19149834  0.81551880     0.30300
H2713       H  0.92147887  0.22238191  0.83060223     0.33600
H2714       H  0.92788413  0.21003130  0.82806338     0.30300
H2715       H  0.90407428  0.21258232  0.77979572     0.38200
H2716       H  0.91722589  0.21374227  0.77465556     0.33700
C2717       C  0.81320009  0.22388428  0.89199007    -0.20100
C2718       C  0.80596954  0.22664030  0.90116420     0.36200
C2719       C  0.80791822  0.22186988  0.91190583    -0.26000
C2720       C  0.81702336  0.21457198  0.91383031     0.02600
C2721       C  0.82450791  0.21218297  0.90484364     0.27400
C2722       C  0.82250261  0.21681122  0.89404961    -0.25200
N2723       N  0.79669202  0.23430107  0.89961572    -0.82500
H2724       H  0.80219091  0.22372701  0.91880803     0.13200
C2725       C  0.81828297  0.20902307  0.92511621     0.02600
N2726       N  0.83410190  0.20500814  0.90671794    -0.81100
H2727       H  0.82815492  0.21470433  0.88716793     0.18000
C2728       C  0.81814346  0.19719280  0.92575438    -0.26000
C2729       C  0.81921935  0.19151860  0.93615758     0.36100
C2730       C  0.82055390  0.19778986  0.94620967    -0.20000
C2731       C  0.82037935  0.20964072  0.94563959    -0.25200
C2732       C  0.81934046  0.21532682  0.93518730     0.27400
H2733       H  0.81705912  0.19235456  0.91807305     0.13200
N2734       N  0.81874448  0.17939586  0.93656843    -0.82500
H2735       H  0.82140290  0.21447044  0.95333253     0.18000
N2736       N  0.81955050  0.22745419  0.93473672    -0.81100
H2737       H  0.81773784  0.17605826  0.92846095     0.33700
H2738       H  0.81152742  0.17714893  0.94116049     0.38200
H2739       H  0.82036932  0.23082124  0.94285323     0.33600
H2740       H  0.82677116  0.22985612  0.93023045     0.30300
H2741       H  0.83874863  0.20402160  0.89926075     0.33600
H2742       H  0.83939362  0.20909704  0.91246185     0.30300
H2743       H  0.80008717  0.24223352  0.89769765     0.38200
H2744       H  0.79212100  0.23524835  0.90712492     0.33700
C2745       C  0.82712147  0.23346759  0.85346403    -0.20100
C2746       C  0.83593004  0.22540796  0.85298274     0.36200
C2747       C  0.84430100  0.22635943  0.84456420    -0.26000
C2748       C  0.84434313  0.23534173  0.83680202     0.02600
C2749       C  0.83568610  0.24349691  0.83737525     0.27400
C2750       C  0.82710213  0.24238102  0.84557090    -0.25200
N2751       N  0.83619978  0.21607015  0.86076455    -0.82500
H2752       H  0.85086609  0.22002037  0.84403745     0.13200
C2753       C  0.85344155  0.23594391  0.82806128     0.02600
N2754       N  0.83571424  0.25294343  0.82971633    -0.81100
H2755       H  0.82045451  0.24864324  0.84592666     0.18000
C2756       C  0.85055848  0.23634150  0.81657080    -0.26000
C2757       C  0.85884817  0.23641650  0.80809414     0.36100
C2758       C  0.87044017  0.23586631  0.81107187    -0.20000
C2759       C  0.87328556  0.23553894  0.82260145    -0.25200
C2760       C  0.86495209  0.23571630  0.83109703     0.27400
H2761       H  0.84174672  0.23641969  0.81414345     0.13200
N2762       N  0.85513963  0.23668632  0.79658520    -0.82500
H2763       H  0.88209071  0.23526281  0.82502839     0.18000
N2764       N  0.86813433  0.23571996  0.84281355    -0.81100
H2765       H  0.85793421  0.24417905  0.79283122     0.33700
H2766       H  0.85856446  0.22977300  0.79231036     0.38200
H2767       H  0.87691400  0.23549068  0.84363378     0.33600
H2768       H  0.86546823  0.24337604  0.84628835     0.30300
H2769       H  0.82876768  0.25816604  0.83122826     0.33600
H2770       H  0.84291177  0.25775629  0.83141575     0.30300
H2771       H  0.83858164  0.21926919  0.86862681     0.38200
H2772       H  0.84251911  0.21034664  0.85849699     0.33700
C2773       C  0.96421171  0.30259239  0.67582618    -0.20100
C2774       C  0.96223256  0.29087178  0.67697238     0.36200
C2775       C  0.95119707  0.28696083  0.67920138    -0.26000
C2776       C  0.94216256  0.29452475  0.68032431     0.02600
C2777       C  0.94413632  0.30620254  0.67927180     0.27400
C2778       C  0.95510839  0.31010809  0.67696739    -0.25200
N2779       N  0.97134679  0.28298683  0.67566406    -0.82500
H2780       H  0.94961326  0.27798828  0.68008105     0.13200
C2781       C  0.93069294  0.29018579  0.68294914     0.02600
N2782       N  0.93497960  0.31403989  0.68062554    -0.81100
H2783       H  0.95658308  0.31910521  0.67618103     0.18000
C2784       C  0.92656948  0.29118761  0.69398178    -0.26000
C2785       C  0.91567666  0.28744017  0.69687013     0.36100
C2786       C  0.90875878  0.28234039  0.68852410    -0.20000
C2787       C  0.91290322  0.28151506  0.67739844    -0.25200
C2788       C  0.92378347  0.28544640  0.67452684     0.27400
H2789       H  0.93187342  0.29503194  0.70035459     0.13200
N2790       N  0.91159399  0.28900959  0.70821643    -0.82500
H2791       H  0.90769131  0.27769962  0.67094068     0.18000
N2792       N  0.92785569  0.28467419  0.66310290    -0.81100
H2793       H  0.91778332  0.29269462  0.71329885     0.33700
H2794       H  0.90490977  0.29475357  0.70785297     0.38200
H2795       H  0.92177881  0.28094175  0.65792131     0.33600
H2796       H  0.92902007  0.29290300  0.66008983     0.30300
H2797       H  0.93785092  0.32234592  0.67972737     0.33600
H2798       H  0.92927261  0.31263740  0.67405334     0.30300
H2799       H  0.97417934  0.28354101  0.66730329     0.38200
H2800       H  0.96847704  0.27471406  0.67684475     0.33700
C2801       C  0.88280462  0.26721982  0.71715191    -0.20100
C2802       C  0.87599515  0.25792135  0.72034034     0.36200
C2803       C  0.87601786  0.25425268  0.73168139    -0.26000
C2804       C  0.88238594  0.25989734  0.73992605     0.02600
C2805       C  0.88845925  0.26969388  0.73687266     0.27400
C2806       C  0.88870993  0.27314816  0.72553655    -0.25200
N2807       N  0.86956257  0.25188100  0.71203423    -0.82500
H2808       H  0.87133822  0.24673711  0.73403082     0.13200
C2809       C  0.88334930  0.25505626  0.75150653     0.02600
N2810       N  0.89451251  0.27598771  0.74528832    -0.81100
H2811       H  0.89369480  0.28047066  0.72320591     0.18000
C2812       C  0.89413763  0.25302864  0.75590843    -0.26000
C2813       C  0.89561401  0.24858174  0.76680153     0.36100
C2814       C  0.88603369  0.24550011  0.77330671    -0.20000
C2815       C  0.87521533  0.24754461  0.76888555    -0.25200
C2816       C  0.87377650  0.25241190  0.75811804     0.27400
H2817       H  0.90149340  0.25500982  0.75081035     0.13200
N2818       N  0.90681718  0.24738250  0.77129585    -0.82500
H2819       H  0.86783091  0.24527175  0.77380122     0.18000
N2820       N  0.86265185  0.25474321  0.75390886    -0.81100
H2821       H  0.91287966  0.24992311  0.76537093     0.33700
H2822       H  0.90752471  0.25291652  0.77812922     0.38200
H2823       H  0.85652183  0.25227393  0.75979287     0.33600
H2824       H  0.86193000  0.26349582  0.75299911     0.30300
H2825       H  0.89863166  0.28291535  0.74164283     0.33600
H2826       H  0.88858090  0.27923422  0.75096867     0.30300
H2827       H  0.86305202  0.25720164  0.70937790     0.38200
H2828       H  0.86563003  0.24484774  0.71568365     0.33700
C2829       C  0.81116674  0.28171622  0.59797090    -0.20100
C2830       C  0.80192889  0.28367377  0.59061772     0.36200
C2831       C  0.80375714  0.28844170  0.57989882    -0.26000
C2832       C  0.81459736  0.29147819  0.57627901     0.02600
C2833       C  0.82382472  0.28984151  0.58361973     0.27400
C2834       C  0.82201896  0.28500522  0.59436141    -0.25200
N2835       N  0.79060989  0.28100509  0.59397469    -0.82500
H2836       H  0.79660493  0.28991609  0.57439968     0.13200
C2837       C  0.81611606  0.29672016  0.56493475     0.02600
N2838       N  0.83501265  0.29300258  0.58008279    -0.81100
H2839       H  0.82918953  0.28365093  0.59984184     0.18000
C2840       C  0.82074601  0.30757474  0.56420423    -0.26000
C2841       C  0.82253235  0.31285154  0.55371034     0.36100
C2842       C  0.81982791  0.30703799  0.54361792    -0.20000
C2843       C  0.81477896  0.29631894  0.54437996    -0.25200
C2844       C  0.81290921  0.29108956  0.55493847     0.27400
H2845       H  0.82288170  0.31200265  0.57191293     0.13200
N2846       N  0.82688115  0.32418195  0.55332939    -0.82500
H2847       H  0.81260244  0.29185340  0.53671199     0.18000
N2848       N  0.80796309  0.28001506  0.55554663    -0.81100
H2849       H  0.82850508  0.32718158  0.56146813     0.33700
H2850       H  0.82058427  0.32934592  0.54994030     0.38200
H2851       H  0.80603507  0.27706103  0.54745907     0.33600
H2852       H  0.81403117  0.27454073  0.55886725     0.30300
H2853       H  0.84085693  0.29133589  0.58647572     0.33600
H2854       H  0.83721321  0.28789126  0.57323390     0.30300
H2855       H  0.78581658  0.28840312  0.59361975     0.38200
H2856       H  0.78728075  0.27529489  0.58813980     0.33700
C2857       C  0.82678513  0.26970764  0.63514389    -0.20100
C2858       C  0.83704710  0.27575437  0.63347151     0.36200
C2859       C  0.84532675  0.27572766  0.64198637    -0.26000
C2860       C  0.84386343  0.26960544  0.65202338     0.02600
C2861       C  0.83392483  0.26324663  0.65358797     0.27400
C2862       C  0.82549106  0.26342394  0.64521440    -0.25200
N2863       N  0.83910730  0.28198304  0.62322502    -0.82500
H2864       H  0.85301780  0.28055489  0.64080305     0.13200
C2865       C  0.85277917  0.27009649  0.66086637     0.02600
N2866       N  0.83245679  0.25660679  0.66367777    -0.81100
H2867       H  0.81784778  0.25860105  0.64662276     0.18000
C2868       C  0.85019861  0.27468026  0.67148027    -0.26000
C2869       C  0.85842273  0.27560498  0.67991508     0.36100
C2870       C  0.86961047  0.27195146  0.67774266    -0.20000
C2871       C  0.87220681  0.26746847  0.66707072    -0.25200
C2872       C  0.86388157  0.26638107  0.65866202     0.27400
H2873       H  0.84173083  0.27769627  0.67317718     0.13200
N2874       N  0.85523775  0.28069943  0.69041834    -0.82500
H2875       H  0.88072687  0.26461887  0.66535832     0.18000
N2876       N  0.86661703  0.26143858  0.64791872    -0.81100
H2877       H  0.85605547  0.27474262  0.69688577     0.33700
H2878       H  0.86064547  0.28749268  0.69199715     0.38200
H2879       H  0.87512893  0.25914037  0.64763006     0.33600
H2880       H  0.86195572  0.25397578  0.64718956     0.30300
H2881       H  0.82468987  0.25241164  0.66356485     0.33600
H2882       H  0.83868629  0.25036144  0.66367856     0.30300
H2883       H  0.84029883  0.27607856  0.61678015     0.38200
H2884       H  0.84664853  0.28654354  0.62374317     0.33700
C2885       C  0.73175522  0.26349362  0.86551455    -0.20100
C2886       C  0.73347877  0.25400537  0.85843271     0.36200
C2887       C  0.74435717  0.24926887  0.85749489    -0.26000
C2888       C  0.75359267  0.25395770  0.86319245     0.02600
C2889       C  0.75198973  0.26361494  0.86993009     0.27400
C2890       C  0.74112463  0.26824432  0.87104381    -0.25200
N2891       N  0.72418958  0.24894462  0.85252021    -0.82500
H2892       H  0.74565980  0.24184854  0.85231850     0.13200
C2893       C  0.76482619  0.24840331  0.86257044     0.02600
N2894       N  0.76138589  0.26855259  0.87579457    -0.81100
H2895       H  0.73995882  0.27556937  0.87638396     0.18000
C2896       C  0.77388547  0.25400964  0.85733018    -0.26000
C2897       C  0.78487604  0.24963760  0.85778903     0.36100
C2898       C  0.78696669  0.23951633  0.86384589    -0.20000
C2899       C  0.77775556  0.23362963  0.86853934    -0.25200
C2900       C  0.76671762  0.23793158  0.86792249     0.27400
H2901       H  0.77243949  0.26200613  0.85310320     0.13200
N2902       N  0.79375413  0.25594668  0.85248425    -0.82500
H2903       H  0.77923262  0.22578711  0.87303599     0.18000
N2904       N  0.75747909  0.23189594  0.87303597    -0.81100
H2905       H  0.79744487  0.25091020  0.84625257     0.33700
H2906       H  0.79982320  0.25795524  0.85855154     0.38200
H2907       H  0.76026673  0.22427579  0.87652337     0.33600
H2908       H  0.75445731  0.23676487  0.87974913     0.30300
H2909       H  0.75882584  0.27567571  0.88032354     0.33600
H2910       H  0.76420948  0.26266541  0.88174756     0.30300
H2911       H  0.72184507  0.25452013  0.84608002     0.38200
H2912       H  0.72675558  0.24153873  0.84847381     0.33700
C2913       C  0.64904896  0.26737490  0.81153332    -0.20100
C2914       C  0.66069326  0.26730065  0.80858097     0.36200
C2915       C  0.66893531  0.26769531  0.81706703    -0.26000
C2916       C  0.66600437  0.26801055  0.82856328     0.02600
C2917       C  0.65448256  0.26776997  0.83159974     0.27400
C2918       C  0.64617580  0.26755350  0.82309956    -0.25200
N2919       N  0.66451528  0.26717941  0.79708797    -0.82500
H2920       H  0.67775751  0.26793853  0.81463517     0.13200
C2921       C  0.67506609  0.26886665  0.83730095     0.02600
N2922       N  0.65125999  0.26769691  0.84332413    -0.81100
H2923       H  0.63736948  0.26746123  0.82556911     0.18000
C2924       C  0.67499897  0.27795055  0.84490777    -0.26000
C2925       C  0.68348805  0.27921795  0.85313703     0.36100
C2926       C  0.69226802  0.27114877  0.85387271    -0.20000
C2927       C  0.69235739  0.26211350  0.84616782    -0.25200
C2928       C  0.68384540  0.26084999  0.83797045     0.27400
H2929       H  0.66837035  0.28421291  0.84427934     0.13200
N2930       N  0.68333007  0.28881911  0.86054194    -0.82500
H2931       H  0.69900412  0.25586322  0.84666133     0.18000
N2932       N  0.68400466  0.25136985  0.83041072    -0.81100
H2933       H  0.67625883  0.29385379  0.85898105     0.33700
H2934       H  0.69039679  0.29376635  0.85861748     0.38200
H2935       H  0.69103164  0.24626990  0.83195829     0.33600
H2936       H  0.67687996  0.24644709  0.83217077     0.30300
H2937       H  0.64247492  0.26755254  0.84415997     0.33600
H2938       H  0.65423753  0.26018236  0.84688189     0.30300
H2939       H  0.66101537  0.27406252  0.79280748     0.38200
H2940       H  0.66192150  0.25965300  0.79331069     0.33700
C2941       C  0.73267873  0.23441590  0.62318879    -0.20100
C2942       C  0.73489581  0.24267862  0.63156842     0.36200
C2943       C  0.74579897  0.24741063  0.63241414    -0.26000
C2944       C  0.75460707  0.24391752  0.62531685     0.02600
C2945       C  0.75259427  0.23541363  0.61729177     0.27400
C2946       C  0.74171227  0.23075597  0.61632258    -0.25200
N2947       N  0.72607633  0.24653905  0.63896415    -0.82500
H2948       H  0.74742327  0.25399141  0.63854388     0.13200
C2949       C  0.76561533  0.24994317  0.62558871     0.02600
N2950       N  0.76157473  0.23170668  0.60999444    -0.81100
H2951       H  0.74026854  0.22433752  0.60998579     0.18000
C2952       C  0.77500984  0.24499950  0.63084198    -0.26000
C2953       C  0.78573554  0.25022366  0.63043042     0.36100
C2954       C  0.78708277  0.26047637  0.62439158    -0.20000
C2955       C  0.77751202  0.26553504  0.61951105    -0.25200
C2956       C  0.76684628  0.26038821  0.62002841     0.27400
H2957       H  0.77398384  0.23696666  0.63512946     0.13200
N2958       N  0.79527179  0.24489085  0.63567592    -0.82500
H2959       H  0.77839698  0.27346718  0.61500900     0.18000
N2960       N  0.75727649  0.26560636  0.61470358    -0.81100
H2961       H  0.79294702  0.23709390  0.63914004     0.33700
H2962       H  0.79768516  0.24994124  0.64248601     0.38200
H2963       H  0.75956165  0.27333272  0.61105758     0.33600
H2964       H  0.75472163  0.26038331  0.60807443     0.30300
H2965       H  0.75875703  0.22531981  0.60460841     0.33600
H2966       H  0.76387022  0.23851571  0.60483092     0.30300
H2967       H  0.72415668  0.23990777  0.64449742     0.38200
H2968       H  0.72894462  0.25316362  0.64402748     0.33700
C2969       C  0.63664023  0.23816634  0.71666339    -0.20100
C2970       C  0.64415451  0.24703192  0.71954887     0.36200
C2971       C  0.64479472  0.25075420  0.73079976    -0.26000
C2972       C  0.63815928  0.24579892  0.73931159     0.02600
C2973       C  0.63106292  0.23666209  0.73661481     0.27400
C2974       C  0.63035886  0.23296242  0.72535366    -0.25200
N2975       N  0.65077482  0.25283055  0.71121157    -0.82500
H2976       H  0.65019347  0.25784863  0.73284184     0.13200
C2977       C  0.63757642  0.25104851  0.75069016     0.02600
N2978       N  0.62426523  0.23147487  0.74527763    -0.81100
H2979       H  0.62466785  0.22610190  0.72331142     0.18000
C2980       C  0.62901451  0.25889120  0.75279763    -0.26000
C2981       C  0.62754809  0.26371597  0.76354814     0.36100
C2982       C  0.63469565  0.26040883  0.77258454    -0.20000
C2983       C  0.64350625  0.25273785  0.77030897    -0.25200
C2984       C  0.64500551  0.24802864  0.75945832     0.27400
H2985       H  0.62340485  0.26124209  0.74596566     0.13200
N2986       N  0.61886187  0.27201756  0.76522040    -0.82500
H2987       H  0.64910596  0.25019162  0.77706692     0.18000
N2988       N  0.65399480  0.24017814  0.75731831    -0.81100
H2989       H  0.61424085  0.27327210  0.75780748     0.33700
H2990       H  0.62284484  0.27969437  0.76697871     0.38200
H2991       H  0.65879306  0.23892838  0.76461727     0.33600
H2992       H  0.65035309  0.23238615  0.75535928     0.30300
H2993       H  0.61933827  0.22498982  0.74189346     0.33600
H2994       H  0.62972692  0.22769098  0.75108089     0.30300
H2995       H  0.65634338  0.24708117  0.70751524     0.38200
H2996       H  0.64537724  0.25603042  0.70500834     0.33700
C2997       C  0.64945657  0.23082090  0.67722345    -0.20100
C2998       C  0.66072382  0.22799908  0.68001439     0.36200
C2999       C  0.66906057  0.22779837  0.67148255    -0.26000
C3000       C  0.66642390  0.23027968  0.66019524     0.02600
C3001       C  0.65521637  0.23305179  0.65735765     0.27400
C3002       C  0.64684366  0.23322277  0.66586448    -0.25200
N3003       N  0.66363495  0.22507598  0.69143979    -0.82500
H3004       H  0.67766566  0.22557183  0.67360663     0.13200
C3005       C  0.67546908  0.22972050  0.65140364     0.02600
N3006       N  0.65241217  0.23572479  0.64584602    -0.81100
H3007       H  0.63825746  0.23541069  0.66363505     0.18000
C3008       C  0.67551237  0.22058057  0.64387970    -0.26000
C3009       C  0.68405797  0.21933174  0.63565427     0.36100
C3010       C  0.69277655  0.22749400  0.63482889    -0.20000
C3011       C  0.69269931  0.23663811  0.64238733    -0.25200
C3012       C  0.68414169  0.23793577  0.65054356     0.27400
H3013       H  0.66891577  0.21426790  0.64457103     0.13200
N3014       N  0.68402551  0.20965243  0.62834707    -0.82500
H3015       H  0.69926375  0.24299671  0.64184086     0.18000
N3016       N  0.68451791  0.24774424  0.65767802    -0.81100
H3017       H  0.67700252  0.20454190  0.62997540     0.33700
H3018       H  0.69113806  0.20481656  0.63030168     0.38200
H3019       H  0.68378705  0.25484610  0.65246197     0.33600
H3020       H  0.67767830  0.24803770  0.66323573     0.30300
H3021       H  0.64381716  0.23756855  0.64512988     0.33600
H3022       H  0.65677328  0.24309299  0.64364256     0.30300
H3023       H  0.65935767  0.21761524  0.69348726     0.38200
H3024       H  0.67224906  0.22329192  0.69207756     0.33700
C3025       C  0.61156064  0.69490365  0.21212775    -0.20100
C3026       C  0.60796805  0.68367210  0.21003000     0.36200
C3027       C  0.59685802  0.68166493  0.20627891    -0.26000
C3028       C  0.58929099  0.69056813  0.20433387     0.02600
C3029       C  0.59287883  0.70174312  0.20621642     0.27400
C3030       C  0.60387868  0.70377531  0.21013134    -0.25200
N3031       N  0.61544725  0.67430235  0.21186125    -0.82500
H3032       H  0.59406383  0.67307728  0.20483014     0.13200
C3033       C  0.57769127  0.68812657  0.20012304     0.02600
N3034       N  0.58534880  0.71101130  0.20405449    -0.81100
H3035       H  0.60645347  0.71242976  0.21155303     0.18000
C3036       C  0.56827625  0.69173220  0.20636953    -0.26000
C3037       C  0.55718463  0.68981881  0.20253103     0.36100
C3038       C  0.55543385  0.68433274  0.19206113    -0.20000
C3039       C  0.56493460  0.68059828  0.18593184    -0.25200
C3040       C  0.57598744  0.68242700  0.18983200     0.27400
H3041       H  0.56960806  0.69596592  0.21436314     0.13200
N3042       N  0.54776087  0.69323888  0.20936818    -0.82500
H3043       H  0.56380333  0.67644713  0.17788152     0.18000
N3044       N  0.58550587  0.67869204  0.18327192    -0.81100
H3045       H  0.54353916  0.68591792  0.21196687     0.33700
H3046       H  0.55051283  0.69726698  0.21671557     0.38200
H3047       H  0.58283533  0.67454921  0.17595945     0.33600
H3048       H  0.58994160  0.68586554  0.18061806     0.30300
H3049       H  0.58923118  0.71870831  0.20593821     0.33600
H3050       H  0.58365621  0.71112269  0.19538653     0.30300
H3051       H  0.62163139  0.67462101  0.20554817     0.38200
H3052       H  0.61119966  0.66664586  0.21074115     0.33700
C3053       C  0.50465599  0.59243743  0.09033280    -0.20100
C3054       C  0.51491419  0.59619757  0.09514725     0.36200
C3055       C  0.51473231  0.60491091  0.10317150    -0.26000
C3056       C  0.50457903  0.60997883  0.10651288     0.02600
C3057       C  0.49432899  0.60618480  0.10184005     0.27400
C3058       C  0.49447899  0.59751710  0.09373970    -0.25200
N3059       N  0.52551492  0.59139882  0.09169540    -0.82500
H3060       H  0.52259636  0.60793190  0.10671497     0.13200
C3061       C  0.50489973  0.61930952  0.11486520     0.02600
N3062       N  0.48381996  0.61108659  0.10541619    -0.81100
H3063       H  0.48658463  0.59463278  0.09015634     0.18000
C3064       C  0.50068321  0.62998415  0.11188604    -0.26000
C3065       C  0.50121413  0.63909329  0.11947625     0.36100
C3066       C  0.50604734  0.63744398  0.13024275    -0.20000
C3067       C  0.51037170  0.62681363  0.13315027    -0.25200
C3068       C  0.50972937  0.61769368  0.12562953     0.27400
H3069       H  0.49714052  0.63123948  0.10354332     0.13200
N3070       N  0.49712297  0.65004350  0.11620482    -0.82500
H3071       H  0.51402366  0.62555219  0.14144404     0.18000
N3072       N  0.51383319  0.60675131  0.12891559    -0.81100
H3073       H  0.49383958  0.64981912  0.10801443     0.33700
H3074       H  0.50403836  0.65553192  0.11596399     0.38200
H3075       H  0.51715898  0.60698747  0.13708757     0.33600
H3076       H  0.50691778  0.60126517  0.12919387     0.30300
H3077       H  0.47705380  0.60736214  0.10116463     0.33600
H3078       H  0.48274828  0.60919233  0.11398994     0.30300
H3079       H  0.52680744  0.59356923  0.08321696     0.38200
H3080       H  0.53218900  0.59496589  0.09621855     0.33700
C3081       C  0.69147798  0.54710120  0.19352886    -0.20100
C3082       C  0.69217913  0.54878418  0.20532705     0.36200
C3083       C  0.69452649  0.55966917  0.20952496    -0.26000
C3084       C  0.69624645  0.56882441  0.20215878     0.02600
C3085       C  0.69565351  0.56712508  0.19040331     0.27400
C3086       C  0.69321253  0.55631383  0.18621656    -0.25200
N3087       N  0.69030068  0.53952900  0.21298771    -0.82500
H3088       H  0.69503176  0.56104019  0.21856067     0.13200
C3089       C  0.69887215  0.58016572  0.20676550     0.02600
N3090       N  0.69755401  0.57641089  0.18277517    -0.81100
H3091       H  0.69275135  0.55505057  0.17716369     0.18000
C3092       C  0.70981453  0.58447011  0.20549746    -0.26000
C3093       C  0.71262162  0.59532408  0.20937129     0.36100
C3094       C  0.70426620  0.60204325  0.21465509    -0.20000
C3095       C  0.69325674  0.59774059  0.21578818    -0.25200
C3096       C  0.69049092  0.58684006  0.21193418     0.27400
H3097       H  0.71617659  0.57932898  0.20140164     0.13200
N3098       N  0.72388910  0.59958417  0.20781087    -0.82500
H3099       H  0.68684343  0.60281467  0.21988068     0.18000
N3100       N  0.67922740  0.58250558  0.21324555    -0.81100
H3101       H  0.72900448  0.59355372  0.20389684     0.33700
H3102       H  0.72342651  0.60645764  0.20226702     0.38200
H3103       H  0.67408433  0.58841899  0.21729889     0.33600
H3104       H  0.67587949  0.58136047  0.20516243     0.30300
H3105       H  0.69694201  0.57373994  0.17438376     0.33600
H3106       H  0.69107879  0.58226399  0.18404520     0.30300
H3107       H  0.68191506  0.53694218  0.21207162     0.38200
H3108       H  0.69119615  0.54217950  0.22135995     0.33700
C3109       C  0.70210030  0.45359433  0.18166810    -0.20100
C3110       C  0.71374561  0.45235509  0.18394086     0.36200
C3111       C  0.71823720  0.44147103  0.18564108    -0.26000
C3112       C  0.71134819  0.43185715  0.18508675     0.02600
C3113       C  0.69975200  0.43306102  0.18288611     0.27400
C3114       C  0.69525684  0.44389606  0.18116199    -0.25200
N3115       N  0.72101144  0.46206926  0.18427607    -0.82500
H3116       H  0.72715600  0.44044995  0.18735830     0.13200
C3117       C  0.71633272  0.42054113  0.18696686     0.02600
N3118       N  0.69259416  0.42326129  0.18247331    -0.81100
H3119       H  0.68631430  0.44476877  0.17951034     0.18000
C3120       C  0.71483405  0.41525774  0.19745893    -0.26000
C3121       C  0.71938132  0.40450900  0.19960748     0.36100
C3122       C  0.72563281  0.39894693  0.19105770    -0.20000
C3123       C  0.72691764  0.40419241  0.18045980    -0.25200
C3124       C  0.72233560  0.41496053  0.17834163     0.27400
H3125       H  0.71006669  0.41955400  0.20398502     0.13200
N3126       N  0.71752322  0.39916771  0.21038526    -0.82500
H3127       H  0.73167632  0.39996708  0.17388487     0.18000
N3128       N  0.72379009  0.42029587  0.16750794    -0.81100
H3129       H  0.71284626  0.40441418  0.21572393     0.33700
H3130       H  0.71259924  0.39197378  0.20900452     0.38200
H3131       H  0.72849042  0.41512922  0.16211284     0.33600
H3132       H  0.71580499  0.42113711  0.16386653     0.30300
H3133       H  0.68423899  0.42559453  0.18088776     0.33600
H3134       H  0.69519627  0.41836194  0.17560903     0.30300
H3135       H  0.72928820  0.45968975  0.18617301     0.38200
H3136       H  0.72120610  0.46557595  0.17615791     0.33700
C3137       C  0.56721203  0.51952424  0.07077109    -0.20100
C3138       C  0.56864247  0.53034310  0.07558842     0.36200
C3139       C  0.55933767  0.53765633  0.07637917    -0.26000
C3140       C  0.54866057  0.53441405  0.07244021     0.02600
C3141       C  0.54720293  0.52356937  0.06776004     0.27400
C3142       C  0.55651444  0.51628915  0.06686567    -0.25200
N3143       N  0.57957310  0.53399146  0.07937177    -0.82500
H3144       H  0.56046643  0.54604646  0.07982844     0.13200
C3145       C  0.53922336  0.54266746  0.07274732     0.02600
N3146       N  0.53624544  0.51997999  0.06400932    -0.81100
H3147       H  0.55536928  0.50796030  0.06327772     0.18000
C3148       C  0.53393116  0.54571562  0.06260095    -0.26000
C3149       C  0.52524289  0.55378384  0.06237046     0.36100
C3150       C  0.52166000  0.55886201  0.07258225    -0.20000
C3151       C  0.52703688  0.55581723  0.08273346    -0.25200
C3152       C  0.53573019  0.54775090  0.08293103     0.27400
H3153       H  0.53679013  0.54194707  0.05476513     0.13200
N3154       N  0.52030587  0.55702485  0.05176166    -0.82500
H3155       H  0.52435737  0.55964814  0.09059858     0.18000
N3156       N  0.54097151  0.54464171  0.09343252    -0.81100
H3157       H  0.52378763  0.55236315  0.04512179     0.33700
H3158       H  0.52246477  0.56546150  0.05026475     0.38200
H3159       H  0.53748280  0.54920374  0.10013747     0.33600
H3160       H  0.53911716  0.53613860  0.09495405     0.30300
H3161       H  0.53660429  0.51179301  0.06074650     0.33600
H3162       H  0.53096771  0.51963660  0.07109983     0.30300
H3163       H  0.58483371  0.53449964  0.07227724     0.38200
H3164       H  0.57914450  0.54212524  0.08275761     0.33700
C3165       C  0.60191694  0.50277168  0.08621814    -0.20100
C3166       C  0.59903770  0.50309272  0.09778190     0.36200
C3167       C  0.60764424  0.50273743  0.10589917    -0.26000
C3168       C  0.61904159  0.50216797  0.10267863     0.02600
C3169       C  0.62189754  0.50168005  0.09110273     0.27400
C3170       C  0.61327793  0.50183236  0.08299523    -0.25200
N3171       N  0.58740481  0.50357526  0.10123191    -0.82500
H3172       H  0.60546835  0.50286357  0.11480019     0.13200
C3173       C  0.62785851  0.50213329  0.11155300     0.02600
N3174       N  0.63352750  0.50125440  0.08763093    -0.81100
H3175       H  0.61544976  0.50154936  0.07409581     0.18000
C3176       C  0.63572996  0.49330720  0.11192147    -0.26000
C3177       C  0.64410514  0.49292410  0.12029280     0.36100
C3178       C  0.64437719  0.50139143  0.12869607    -0.20000
C3179       C  0.63656339  0.51028336  0.12820854    -0.25200
C3180       C  0.62836802  0.51078951  0.11969300     0.27400
H3181       H  0.63532147  0.48667822  0.10564226     0.13200
N3182       N  0.65240549  0.48408645  0.12014182    -0.82500
H3183       H  0.63672482  0.51680962  0.13459621     0.18000
N3184       N  0.62055176  0.52005942  0.11927183    -0.81100
H3185       H  0.65094781  0.47853482  0.11344542     0.33700
H3186       H  0.66025221  0.48784582  0.11861037     0.38200
H3187       H  0.62199986  0.52567032  0.12591932     0.33600
H3188       H  0.62210402  0.52452901  0.11179313     0.30300
H3189       H  0.63416648  0.50087638  0.07882373     0.33600
H3190       H  0.63733169  0.50882506  0.09008988     0.30300
H3191       H  0.58353687  0.49608047  0.09864187     0.38200
H3192       H  0.58675306  0.50380461  0.11004388     0.33700
C3193       C  0.59024944  0.44706454  0.00716328    -0.20100
C3194       C  0.59988810  0.44985974  0.01363369     0.36200
C3195       C  0.59915685  0.45843806  0.02178013    -0.26000
C3196       C  0.58901840  0.46422281  0.02375528     0.02600
C3197       C  0.57946378  0.46161863  0.01718033     0.27400
C3198       C  0.58022161  0.45318924  0.00889851    -0.25200
N3199       N  0.61042009  0.44412305  0.01188246    -0.82500
H3200       H  0.60656190  0.46063237  0.02666073     0.13200
C3201       C  0.58845070  0.47270185  0.03299023     0.02600
N3202       N  0.56893887  0.46733463  0.01912850    -0.81100
H3203       H  0.57277520  0.45117703  0.00401128     0.18000
C3204       C  0.58435332  0.48360995  0.03074422    -0.26000
C3205       C  0.58340010  0.49169828  0.03937938     0.36100
C3206       C  0.58683269  0.48885946  0.05044649    -0.20000
C3207       C  0.59114566  0.47803433  0.05260935    -0.25200
C3208       C  0.59183084  0.46988436  0.04407257     0.27400
H3209       H  0.58192782  0.48582846  0.02220056     0.13200
N3210       N  0.57912699  0.50278449  0.03690263    -0.82500
H3211       H  0.59371376  0.47579836  0.06110816     0.18000
N3212       N  0.59573873  0.45868331  0.04667213    -0.81100
H3213       H  0.57686340  0.50343323  0.02839018     0.33700
H3214       H  0.58569784  0.50853626  0.03817860     0.38200
H3215       H  0.59796400  0.45802104  0.05519345     0.33600
H3216       H  0.58899517  0.45313070  0.04541603     0.30300
H3217       H  0.56275692  0.46449644  0.01352201     0.33600
H3218       H  0.56616979  0.46517558  0.02725095     0.30300
H3219       H  0.61335745  0.44643278  0.00386265     0.38200
H3220       H  0.61649438  0.44688338  0.01764455     0.33700
C3221       C  0.70524903  0.31404888  0.04103350    -0.20100
C3222       C  0.69906526  0.31282038  0.05121224     0.36200
C3223       C  0.70486475  0.31161568  0.06150833    -0.26000
C3224       C  0.71669948  0.31153763  0.06188397     0.02600
C3225       C  0.72287812  0.31249911  0.05171024     0.27400
C3226       C  0.71709241  0.31365654  0.04140387    -0.25200
N3227       N  0.68693797  0.31261281  0.05106688    -0.82500
H3228       H  0.70013239  0.31062507  0.06930045     0.13200
C3229       C  0.72247473  0.31025690  0.07298308     0.02600
N3230       N  0.73500826  0.31252353  0.05191221    -0.81100
H3231       H  0.72188772  0.31463460  0.03365584     0.18000
C3232       C  0.72995393  0.30125590  0.07462543    -0.26000
C3233       C  0.73538334  0.29955673  0.08504404     0.36100
C3234       C  0.73295032  0.30682799  0.09427331    -0.20000
C3235       C  0.72563158  0.31600556  0.09247489    -0.25200
C3236       C  0.72047410  0.31784815  0.08192921     0.27400
H3237       H  0.73153643  0.29547985  0.06771482     0.13200
N3238       N  0.74336195  0.29048646  0.08618353    -0.82500
H3239       H  0.72377687  0.32172349  0.09935649     0.18000
N3240       N  0.71320222  0.32741073  0.08025714    -0.81100
H3241       H  0.74390855  0.28580837  0.07872068     0.33700
H3242       H  0.75130847  0.29412582  0.08739724     0.38200
H3243       H  0.71257065  0.33216669  0.08766293     0.33600
H3244       H  0.71699811  0.33262852  0.07419674     0.30300
H3245       H  0.73828038  0.31326641  0.04372702     0.33600
H3246       H  0.73758725  0.31971746  0.05631161     0.30300
H3247       H  0.68445817  0.30543427  0.04658649     0.38200
H3248       H  0.68370499  0.31171105  0.05925328     0.33700
C3249       C  0.69925355  0.30860614  0.94644105    -0.20100
C3250       C  0.70853038  0.30142139  0.94418935     0.36200
C3251       C  0.70957717  0.29631775  0.93347497    -0.26000
C3252       C  0.70196619  0.29868779  0.92467883     0.02600
C3253       C  0.69293808  0.30615692  0.92680737     0.27400
C3254       C  0.69155283  0.31078039  0.93765214    -0.25200
N3255       N  0.71701291  0.29949667  0.95262615    -0.82500
H3256       H  0.71647802  0.29052911  0.93193807     0.13200
C3257       C  0.70356267  0.29337454  0.91329391     0.02600
N3258       N  0.68527532  0.30917842  0.91789547    -0.81100
H3259       H  0.68434996  0.31616670  0.93915803     0.18000
C3260       C  0.69442720  0.28794551  0.90801097    -0.26000
C3261       C  0.69554376  0.28292090  0.89727534     0.36100
C3262       C  0.70611337  0.28315256  0.89169431    -0.20000
C3263       C  0.71526990  0.28846649  0.89704524    -0.25200
C3264       C  0.71409151  0.29368566  0.90765797     0.27400
H3265       H  0.68638879  0.28747741  0.91237054     0.13200
N3266       N  0.68603921  0.27737559  0.89218807    -0.82500
H3267       H  0.72338944  0.28874131  0.89281907     0.18000
N3268       N  0.72352922  0.29943989  0.91264558    -0.81100
H3269       H  0.67887091  0.27812733  0.89730336     0.33700
H3270       H  0.68789800  0.26876024  0.89175121     0.38200
H3271       H  0.73067251  0.29882026  0.90747783     0.33600
H3272       H  0.72149589  0.30801370  0.91310399     0.30300
H3273       H  0.67906422  0.31470725  0.92084384     0.33600
H3274       H  0.68989072  0.31359037  0.91176440     0.30300
H3275       H  0.72106196  0.30720188  0.95409065     0.38200
H3276       H  0.72319752  0.29396208  0.94963197     0.33700
C3277       C  0.64661742  0.36709438  0.99369409    -0.20100
C3278       C  0.63676240  0.36681652  0.00039181     0.36200
C3279       C  0.62907878  0.37579671  0.99986339    -0.26000
C3280       C  0.63102491  0.38507608  0.99272490     0.02600
C3281       C  0.64093125  0.38545631  0.98609468     0.27400
C3282       C  0.64860924  0.37644304  0.98663031    -0.25200
N3283       N  0.63432733  0.35728993  0.00747027    -0.82500
H3284       H  0.62150081  0.37549303  0.00500818     0.13200
C3285       C  0.62253723  0.39425005  0.99218004     0.02600
N3286       N  0.64309301  0.39493468  0.97877919    -0.81100
H3287       H  0.65621924  0.37674947  0.98154254     0.18000
C3288       C  0.62569982  0.40527653  0.99505479    -0.26000
C3289       C  0.61789816  0.41418758  0.99461844     0.36100
C3290       C  0.60660589  0.41195826  0.99148248    -0.20000
C3291       C  0.60350029  0.40091582  0.98849491    -0.25200
C3292       C  0.61136062  0.39204953  0.98876650     0.27400
H3293       H  0.63432048  0.40692949  0.99760360     0.13200
N3294       N  0.62148451  0.42550125  0.99710015    -0.82500
H3295       H  0.59487749  0.39917416  0.98601708     0.18000
N3296       N  0.60807444  0.38082835  0.98552824    -0.81100
H3297       H  0.62074364  0.43023735  0.98966753     0.33700
H3298       H  0.63001743  0.42566718  0.99931945     0.38200
H3299       H  0.59954715  0.38061293  0.98329305     0.33600
H3300       H  0.61265401  0.37871748  0.97827032     0.30300
H3301       H  0.65079088  0.39395050  0.97455635     0.33600
H3302       H  0.63682204  0.39502015  0.97258196     0.30300
H3303       H  0.63346251  0.36016532  0.01577453     0.38200
H3304       H  0.62658123  0.35389709  0.00496479     0.33700
C3305       C  0.55561453  0.30258522  0.81084048    -0.20100
C3306       C  0.56542417  0.30942040  0.81049955     0.36200
C3307       C  0.57604015  0.30440043  0.80872567    -0.26000
C3308       C  0.57709509  0.29272436  0.80718694     0.02600
C3309       C  0.56733032  0.28590278  0.80731281     0.27400
C3310       C  0.55667958  0.29090253  0.80911405    -0.25200
N3311       N  0.56456673  0.32146286  0.81171554    -0.82500
H3312       H  0.58355406  0.30962149  0.80846208     0.13200
C3313       C  0.58845915  0.28783842  0.80501412     0.02600
N3314       N  0.56828796  0.27393761  0.80557655    -0.81100
H3315       H  0.54919864  0.28563924  0.80935081     0.18000
C3316       C  0.59364934  0.28109235  0.81326686    -0.26000
C3317       C  0.60445410  0.27641165  0.81146063     0.36100
C3318       C  0.61003807  0.27829837  0.80103002    -0.20000
C3319       C  0.60478493  0.28509288  0.79282389    -0.25200
C3320       C  0.59412781  0.28994709  0.79474200     0.27400
H3321       H  0.58926974  0.27955167  0.82117567     0.13200
N3322       N  0.60953818  0.26945463  0.82001300    -0.82500
H3323       H  0.60904193  0.28664902  0.78485200     0.18000
N3324       N  0.58898198  0.29695900  0.78626641    -0.81100
H3325       H  0.60396323  0.26825106  0.82677737     0.33700
H3326       H  0.61639743  0.27391943  0.82328200     0.38200
H3327       H  0.59427679  0.29776564  0.77922507     0.33600
H3328       H  0.58168619  0.29284975  0.78349778     0.30300
H3329       H  0.56034346  0.27010462  0.80597214     0.33600
H3330       H  0.57131972  0.27268517  0.79736766     0.30300
H3331       H  0.56000934  0.32453177  0.80480675     0.38200
H3332       H  0.57254290  0.32523019  0.81131058     0.33700
C3333       C  0.53014748  0.42811187  0.93166294    -0.20100
C3334       C  0.54092575  0.42344040  0.92952082     0.36200
C3335       C  0.54906250  0.42339459  0.93813900    -0.26000
C3336       C  0.54667487  0.42788217  0.94883525     0.02600
C3337       C  0.53593214  0.43253174  0.95099002     0.27400
C3338       C  0.52783083  0.43270852  0.94235136    -0.25200
N3339       N  0.54366052  0.41894884  0.91857275    -0.82500
H3340       H  0.55738502  0.41999363  0.93646719     0.13200
C3341       C  0.55561587  0.42797947  0.95760134     0.02600
N3342       N  0.53325791  0.43691639  0.96199607    -0.81100
H3343       H  0.51956257  0.43621259  0.94407152     0.18000
C3344       C  0.55891942  0.43831722  0.96227649    -0.26000
C3345       C  0.56739842  0.43888977  0.97051469     0.36100
C3346       C  0.57272117  0.42883467  0.97420784    -0.20000
C3347       C  0.56946138  0.41848400  0.96941094    -0.25200
C3348       C  0.56091796  0.41794626  0.96120196     0.27400
H3349       H  0.55494829  0.44602045  0.95934197     0.13200
N3350       N  0.57073511  0.44968291  0.97493981    -0.82500
H3351       H  0.57345129  0.41074588  0.97221526     0.18000
N3352       N  0.55750799  0.40725413  0.95660135    -0.81100
H3353       H  0.56582397  0.45615747  0.97149719     0.33700
H3354       H  0.57903309  0.45119296  0.97230872     0.38200
H3355       H  0.56225070  0.40069228  0.96011452     0.33600
H3356       H  0.54912478  0.40585510  0.95900992     0.30300
H3357       H  0.52501553  0.44005148  0.96219094     0.33600
H3358       H  0.53351938  0.43017669  0.96771649     0.30300
H3359       H  0.54351791  0.42564874  0.91280119     0.38200
H3360       H  0.55187296  0.41573193  0.91846652     0.33700
C3361       C  0.51154940  0.40985551  0.89921637    -0.20100
C3362       C  0.51755179  0.39959676  0.90072646     0.36200
C3363       C  0.51697212  0.39119686  0.89238181    -0.26000
C3364       C  0.51049288  0.39269160  0.88261096     0.02600
C3365       C  0.50446908  0.40283044  0.88107808     0.27400
C3366       C  0.50500875  0.41126402  0.88940103    -0.25200
N3367       N  0.52407795  0.39759974  0.91076330    -0.82500
H3368       H  0.52146263  0.38332002  0.89358172     0.13200
C3369       C  0.50996724  0.38346772  0.87414208     0.02600
N3370       N  0.49793699  0.40456553  0.87100058    -0.81100
H3371       H  0.50042601  0.41906302  0.88809005     0.18000
C3372       C  0.49951186  0.37858439  0.87154427    -0.26000
C3373       C  0.49865527  0.36968519  0.86374147     0.36100
C3374       C  0.50848365  0.36575084  0.85817687    -0.20000
C3375       C  0.51896166  0.37061771  0.86092401    -0.25200
C3376       C  0.51981122  0.37937976  0.86885531     0.27400
H3377       H  0.49200334  0.38159224  0.87582613     0.13200
N3378       N  0.48789062  0.36448007  0.86173670    -0.82500
H3379       H  0.52655259  0.36773240  0.85673148     0.18000
N3380       N  0.53062156  0.38421666  0.87149192    -0.81100
H3381       H  0.48154902  0.36845992  0.86641605     0.33700
H3382       H  0.48834309  0.35617414  0.86471720     0.38200
H3383       H  0.53704203  0.38018646  0.86696795     0.33600
H3384       H  0.53053853  0.39262676  0.86878578     0.30300
H3385       H  0.49397332  0.41244521  0.87117341     0.33600
H3386       H  0.50353614  0.40471748  0.86415521     0.30300
H3387       H  0.51843990  0.39705355  0.91755786     0.38200
H3388       H  0.52820994  0.38981635  0.91033990     0.33700
C3389       C  0.31316435  0.54669269  0.80808204    -0.20100
C3390       C  0.31242857  0.55460735  0.81699197     0.36200
C3391       C  0.30801078  0.56541502  0.81487535    -0.26000
C3392       C  0.30407950  0.56845461  0.80412154     0.02600
C3393       C  0.30444155  0.56042085  0.79531459     0.27400
C3394       C  0.30897051  0.54962402  0.79739432    -0.25200
N3395       N  0.31608569  0.55162870  0.82818665    -0.82500
H3396       H  0.30773919  0.57156386  0.82163407     0.13200
C3397       C  0.29984439  0.58015062  0.80216938     0.02600
N3398       N  0.30026900  0.56328945  0.78427924    -0.81100
H3399       H  0.30950518  0.54357527  0.79056262     0.18000
C3400       C  0.30477501  0.58678274  0.79361980    -0.26000
C3401       C  0.30094160  0.59779499  0.79138879     0.36100
C3402       C  0.29207619  0.60232625  0.79791313    -0.20000
C3403       C  0.28739202  0.59589056  0.80672583    -0.25200
C3404       C  0.29108224  0.58478017  0.80883401     0.27400
H3405       H  0.31166374  0.58334299  0.78867508     0.13200
N3406       N  0.30605569  0.60444400  0.78256986    -0.82500
H3407       H  0.28054632  0.59939514  0.81168737     0.18000
N3408       N  0.28580040  0.57809401  0.81752734    -0.81100
H3409       H  0.31245439  0.59988910  0.77854446     0.33700
H3410       H  0.30992373  0.61139969  0.78637000     0.38200
H3411       H  0.27951314  0.58272645  0.82163901     0.33600
H3412       H  0.28177021  0.57130507  0.81359792     0.30300
H3413       H  0.30122968  0.55649897  0.77873331     0.33600
H3414       H  0.29160023  0.56474796  0.78503103     0.30300
H3415       H  0.31082492  0.54514818  0.83110654     0.38200
H3416       H  0.31502447  0.55840641  0.83373117     0.33700
C3417       C  0.49606732  0.44524059  0.91506737    -0.20100
C3418       C  0.49856533  0.45639772  0.91852815     0.36200
C3419       C  0.48999021  0.46459223  0.91848689    -0.26000
C3420       C  0.47898048  0.46191568  0.91509112     0.02600
C3421       C  0.47646074  0.45079215  0.91168033     0.27400
C3422       C  0.48504790  0.44261490  0.91158700    -0.25200
N3423       N  0.50982424  0.45945418  0.92184517    -0.82500
H3424       H  0.49194062  0.47318531  0.92092964     0.13200
C3425       C  0.47027255  0.47094187  0.91478347     0.02600
N3426       N  0.46515304  0.44782415  0.90845456    -0.81100
H3427       H  0.48305580  0.43407300  0.90900954     0.18000
C3428       C  0.46480925  0.47330826  0.90456828    -0.26000
C3429       C  0.45671195  0.48192684  0.90375453     0.36100
C3430       C  0.45389205  0.48834284  0.91347433    -0.20000
C3431       C  0.45947162  0.48594828  0.92370004    -0.25200
C3432       C  0.46757780  0.47731784  0.92446070     0.27400
H3433       H  0.46705731  0.46851991  0.89710333     0.13200
N3434       N  0.45157539  0.48426663  0.89301649    -0.82500
H3435       H  0.45740039  0.49070699  0.93122624     0.18000
N3436       N  0.47299435  0.47491235  0.93505487    -0.81100
H3437       H  0.45454544  0.49215483  0.89035552     0.33700
H3438       H  0.45421680  0.47846449  0.88691542     0.38200
H3439       H  0.47011622  0.48038655  0.94134934     0.33600
H3440       H  0.47059672  0.46677022  0.93752230     0.30300
H3441       H  0.46470289  0.43931997  0.90615091     0.33600
H3442       H  0.45999745  0.44877366  0.91557466     0.30300
H3443       H  0.51501783  0.45867328  0.91473158     0.38200
H3444       H  0.51017801  0.46792809  0.92427511     0.33700
C3445       C  0.42107062  0.50659851  0.89531278    -0.20100
C3446       C  0.42394966  0.50388204  0.88404333     0.36200
C3447       C  0.41548687  0.50367293  0.87576568    -0.26000
C3448       C  0.40428407  0.50624212  0.87850509     0.02600
C3449       C  0.40144509  0.50938946  0.88961479     0.27400
C3450       C  0.40987817  0.50954939  0.89792359    -0.25200
N3451       N  0.43544107  0.50146865  0.88101143    -0.82500
H3452       H  0.41759190  0.50139733  0.86714793     0.13200
C3453       C  0.39556007  0.50532384  0.86967585     0.02600
N3454       N  0.38999672  0.51229554  0.89240156    -0.81100
H3455       H  0.40764070  0.51172269  0.90653107     0.18000
C3456       C  0.38770429  0.49649297  0.87029588    -0.26000
C3457       C  0.37938945  0.49519146  0.86196390     0.36100
C3458       C  0.37901114  0.50288734  0.85283413    -0.20000
C3459       C  0.38685734  0.51176987  0.85229399    -0.25200
C3460       C  0.39516702  0.51304478  0.86062463     0.27400
H3461       H  0.38807851  0.49061681  0.87732395     0.13200
N3462       N  0.37120225  0.48626901  0.86289140    -0.82500
H3463       H  0.38653936  0.51769134  0.84530379     0.18000
N3464       N  0.40319624  0.52213324  0.85996873    -0.81100
H3465       H  0.37272774  0.48133355  0.87006671     0.33700
H3466       H  0.36330002  0.49000879  0.86407368     0.38200
H3467       H  0.40180607  0.52702368  0.85273509     0.33600
H3468       H  0.40179240  0.52740610  0.86690333     0.30300
H3469       H  0.38930004  0.51435199  0.90096383     0.33600
H3470       H  0.38794292  0.51959030  0.88785760     0.30300
H3471       H  0.44014154  0.50882866  0.88229231     0.38200
H3472       H  0.43609362  0.49955604  0.87241213     0.33700
C3473       C  0.43096964  0.56038120  0.97707375    -0.20100
C3474       C  0.43541708  0.54944348  0.97893020     0.36200
C3475       C  0.43645335  0.54194697  0.96980389    -0.26000
C3476       C  0.43328515  0.54514456  0.95884366     0.02600
C3477       C  0.42898532  0.55609977  0.95695458     0.27400
C3478       C  0.42770987  0.56353019  0.96611109    -0.25200
N3479       N  0.43869178  0.54589394  0.99008230    -0.82500
H3480       H  0.43959133  0.53348099  0.97127195     0.13200
C3481       C  0.43413555  0.53680168  0.94950449     0.02600
N3482       N  0.42609319  0.55968430  0.94571030    -0.81100
H3483       H  0.42443698  0.57194062  0.96462001     0.18000
C3484       C  0.42447642  0.53429358  0.94317721    -0.26000
C3485       C  0.42478801  0.52643296  0.93432067     0.36100
C3486       C  0.43505546  0.52088511  0.93170366    -0.20000
C3487       C  0.44467502  0.52324900  0.93822226    -0.25200
C3488       C  0.44435111  0.53120979  0.94701636     0.27400
H3489       H  0.41658486  0.53841408  0.94526859     0.13200
N3490       N  0.41465330  0.52398486  0.92813033    -0.82500
H3491       H  0.45257424  0.51907851  0.93627962     0.18000
N3492       N  0.45439250  0.53377112  0.95330641    -0.81100
H3493       H  0.40795079  0.52897612  0.93096247     0.33700
H3494       H  0.41243647  0.51560893  0.92986648     0.38200
H3495       H  0.46117945  0.52890552  0.95045739     0.33600
H3496       H  0.45648089  0.54220102  0.95168029     0.30300
H3497       H  0.42304950  0.56796639  0.94575831     0.33600
H3498       H  0.43351817  0.55976599  0.94091422     0.30300
H3499       H  0.43140067  0.54560448  0.99507258     0.38200
H3500       H  0.44195527  0.53769712  0.98993875     0.33700
C3501       C  0.44569091  0.57633295  0.01246581    -0.20100
C3502       C  0.45659637  0.57172919  0.01071595     0.36200
C3503       C  0.46437692  0.57158374  0.01964918    -0.26000
C3504       C  0.46162870  0.57596773  0.03029825     0.02600
C3505       C  0.45085321  0.58076383  0.03201588     0.27400
C3506       C  0.44303745  0.58094344  0.02308077    -0.25200
N3507       N  0.45987002  0.56741892  0.99983780    -0.82500
H3508       H  0.47275232  0.56819643  0.01823975     0.13200
C3509       C  0.47027582  0.57573893  0.03942325     0.02600
N3510       N  0.44784165  0.58531709  0.04286275    -0.81100
H3511       H  0.43474245  0.58451096  0.02450343     0.18000
C3512       C  0.47329753  0.58584014  0.04478838    -0.26000
C3513       C  0.48166176  0.58609089  0.05318905     0.36100
C3514       C  0.48719418  0.57596293  0.05632249    -0.20000
C3515       C  0.48423656  0.56587250  0.05084203    -0.25200
C3516       C  0.47579202  0.56563046  0.04251538     0.27400
H3517       H  0.46925788  0.59363730  0.04222965     0.13200
N3518       N  0.48470176  0.59665309  0.05831927    -0.82500
H3519       H  0.48839666  0.55807630  0.05319784     0.18000
N3520       N  0.47272687  0.55513946  0.03725539    -0.81100
H3521       H  0.47968739  0.60321763  0.05521387     0.33700
H3522       H  0.49299539  0.59849915  0.05589720     0.38200
H3523       H  0.47762050  0.54850902  0.04041325     0.33600
H3524       H  0.46436429  0.55337407  0.03948609     0.30300
H3525       H  0.43965946  0.58860630  0.04270922     0.33600
H3526       H  0.44777266  0.57864438  0.04866642     0.30300
H3527       H  0.46007006  0.57423180  0.99419989     0.38200
H3528       H  0.46805670  0.56414488  0.00007419     0.33700
C3529       C  0.30798702  0.68665952  0.94915317    -0.20100
C3530       C  0.30845579  0.69746950  0.94411106     0.36200
C3531       C  0.30390019  0.69907287  0.93324410    -0.26000
C3532       C  0.29892120  0.69010178  0.92731357     0.02600
C3533       C  0.29811984  0.67940317  0.93252290     0.27400
C3534       C  0.30275728  0.67777219  0.94332636    -0.25200
N3535       N  0.31395736  0.70664808  0.94980717    -0.82500
H3536       H  0.30459613  0.70726485  0.92919990     0.13200
C3537       C  0.29519770  0.69187517  0.91542459     0.02600
N3538       N  0.29263839  0.67023486  0.92678664    -0.81100
H3539       H  0.30229754  0.66949843  0.94723490     0.18000
C3540       C  0.29992976  0.68524534  0.90680595    -0.26000
C3541       C  0.29717356  0.68704337  0.89537367     0.36100
C3542       C  0.28941495  0.69562838  0.89248004    -0.20000
C3543       C  0.28462210  0.70219022  0.90115812    -0.25200
C3544       C  0.28738008  0.70037060  0.91257344     0.27400
H3545       H  0.30605968  0.67882735  0.90900024     0.13200
N3546       N  0.30250509  0.68041604  0.88671837    -0.82500
H3547       H  0.27860533  0.70873734  0.89903849     0.18000
N3548       N  0.28225153  0.70708748  0.92128770    -0.81100
H3549       H  0.30789588  0.67440773  0.89028280     0.33700
H3550       H  0.30758377  0.68584794  0.88192039     0.38200
H3551       H  0.27672687  0.71301194  0.91778975     0.33600
H3552       H  0.27735946  0.70169218  0.92631574     0.30300
H3553       H  0.29279822  0.66291387  0.93174323     0.33600
H3554       H  0.28414906  0.67241307  0.92580229     0.30300
H3555       H  0.31352572  0.71403074  0.94496101     0.38200
H3556       H  0.32251197  0.70461399  0.95049764     0.33700
C3557       C  0.36761008  0.63359860  0.99585843    -0.20100
C3558       C  0.36586201  0.62300148  0.99067668     0.36200
C3559       C  0.37464205  0.61500034  0.99061297    -0.26000
C3560       C  0.38506596  0.61736635  0.99565291     0.02600
C3561       C  0.38686356  0.62794430  0.00076286     0.27400
C3562       C  0.37807271  0.63590008  0.00092299    -0.25200
N3563       N  0.35514901  0.62031925  0.98568631    -0.82500
H3564       H  0.37335069  0.60684749  0.98668561     0.13200
C3565       C  0.39406750  0.60870154  0.99546861     0.02600
N3566       N  0.39772546  0.63071138  0.00539944    -0.81100
H3567       H  0.37950391  0.64406372  0.00477071     0.18000
C3568       C  0.40100324  0.60775815  0.98589704    -0.26000
C3569       C  0.40973936  0.59972595  0.98548263     0.36100
C3570       C  0.41161217  0.59262785  0.99489414    -0.20000
C3571       C  0.40461503  0.59354059  0.00443322    -0.25200
C3572       C  0.39571739  0.60138916  0.00473990     0.27400
H3573       H  0.39961203  0.61334633  0.97876832     0.13200
N3574       N  0.41681542  0.59885623  0.97563317    -0.82500
H3575       H  0.40596773  0.58794732  0.01156583     0.18000
N3576       N  0.38812931  0.60171227  0.01424245    -0.81100
H3577       H  0.41429614  0.60464692  0.96945142     0.33700
H3578       H  0.42500155  0.60112812  0.97800046     0.38200
H3579       H  0.39030932  0.59554856  0.02018870     0.33600
H3580       H  0.38908354  0.60949710  0.01824789     0.30300
H3581       H  0.39773356  0.63894693  0.00855890     0.33600
H3582       H  0.39919582  0.62539258  0.01229105     0.30300
H3583       H  0.34914758  0.62014059  0.99217989     0.38200
H3584       H  0.35529445  0.61222698  0.98217957     0.33700
C3585       C  0.31206113  0.39752668  0.77561077    -0.20100
C3586       C  0.30358757  0.40600173  0.77619679     0.36200
C3587       C  0.30628510  0.41689165  0.78001996    -0.26000
C3588       C  0.31724213  0.41966141  0.78342153     0.02600
C3589       C  0.32573209  0.41132262  0.78291734     0.27400
C3590       C  0.32307377  0.40039744  0.77901484    -0.25200
N3591       N  0.29215742  0.40367359  0.77304584    -0.82500
H3592       H  0.29968165  0.42319697  0.78053269     0.13200
C3593       C  0.31958311  0.43116574  0.78796783     0.02600
N3594       N  0.33704039  0.41399630  0.78637546    -0.81100
H3595       H  0.32967943  0.39409781  0.77868004     0.18000
C3596       C  0.32349141  0.43222709  0.79908224    -0.26000
C3597       C  0.32578035  0.44286513  0.80380974     0.36100
C3598       C  0.32436955  0.45274163  0.79718630    -0.20000
C3599       C  0.32012276  0.45169388  0.78615612    -0.25200
C3600       C  0.31772203  0.44101663  0.78147690     0.27400
H3601       H  0.32460155  0.42468308  0.80416171     0.13200
N3602       N  0.32927175  0.44364813  0.81540645    -0.82500
H3603       H  0.31894896  0.45920872  0.78105648     0.18000
N3604       N  0.31355846  0.44012545  0.77011488    -0.81100
H3605       H  0.32993661  0.43562610  0.81905554     0.33700
H3606       H  0.32291442  0.44788222  0.81983127     0.38200
H3607       H  0.31259608  0.44813401  0.76650575     0.33600
H3608       H  0.31968029  0.43593737  0.76532900     0.30300
H3609       H  0.34227965  0.40694379  0.78559598     0.33600
H3610       H  0.34017556  0.42011533  0.78080332     0.30300
H3611       H  0.28697059  0.40525202  0.78002909     0.38200
H3612       H  0.28988983  0.40926502  0.76658806     0.33700
C3613       C  0.40605955  0.30254227  0.77656564    -0.20100
C3614       C  0.40793521  0.30968791  0.78591100     0.36200
C3615       C  0.41904161  0.31152207  0.78975849    -0.26000
C3616       C  0.42836835  0.30639213  0.78448766     0.02600
C3617       C  0.42648061  0.29915899  0.77521550     0.27400
C3618       C  0.41537070  0.29722195  0.77144975    -0.25200
N3619       N  0.39856057  0.31487131  0.79161431    -0.82500
H3620       H  0.42044219  0.31692682  0.79699392     0.13200
C3621       C  0.44002248  0.30876430  0.78875190     0.02600
N3622       N  0.43586393  0.29397375  0.76952266    -0.81100
H3623       H  0.41399598  0.29172244  0.76428009     0.18000
C3624       C  0.44705004  0.29982270  0.79216607    -0.26000
C3625       C  0.45789335  0.30183987  0.79667236     0.36100
C3626       C  0.46183132  0.31305590  0.79776837    -0.20000
C3627       C  0.45482073  0.32195763  0.79425714    -0.25200
C3628       C  0.44406164  0.31994182  0.78966556     0.27400
H3629       H  0.44394297  0.29123937  0.79156735     0.13200
N3630       N  0.46472641  0.29256470  0.80046475    -0.82500
H3631       H  0.45781523  0.33057049  0.79497614     0.18000
N3632       N  0.43723971  0.32921692  0.78583425    -0.81100
H3633       H  0.46063013  0.28488123  0.79902064     0.33700
H3634       H  0.46561945  0.29330197  0.80922133     0.38200
H3635       H  0.44138857  0.33689873  0.78712967     0.33600
H3636       H  0.43622989  0.32836553  0.77710146     0.30300
H3637       H  0.43305506  0.28887923  0.76289627     0.33600
H3638       H  0.44068847  0.30042244  0.76586334     0.30300
H3639       H  0.39369941  0.30841508  0.79521230     0.38200
H3640       H  0.40137466  0.31989429  0.79829271     0.33700
C3641       C  0.36770930  0.31592571  0.76624923    -0.20100
C3642       C  0.36009940  0.31697572  0.75709235     0.36200
C3643       C  0.35184328  0.32555897  0.75723085    -0.26000
C3644       C  0.35105276  0.33315681  0.76627027     0.02600
C3645       C  0.35864732  0.33217063  0.77537090     0.27400
C3646       C  0.36694699  0.32365239  0.77521841    -0.25200
N3647       N  0.36086124  0.30944530  0.74761818    -0.82500
H3648       H  0.34597658  0.32633775  0.75026396     0.13200
C3649       C  0.34199816  0.34188312  0.76630762     0.02600
N3650       N  0.35767885  0.33962038  0.78489397    -0.81100
H3651       H  0.37268321  0.32286820  0.78229191     0.18000
C3652       C  0.33143142  0.33919519  0.77093359    -0.26000
C3653       C  0.32268563  0.34716035  0.77128196     0.36100
C3654       C  0.32448892  0.35824248  0.76704672    -0.20000
C3655       C  0.33513004  0.36093553  0.76246485    -0.25200
C3656       C  0.34385403  0.35282738  0.76192784     0.27400
H3657       H  0.32997431  0.33081054  0.77433517     0.13200
N3658       N  0.31220208  0.34382270  0.77635073    -0.82500
H3659       H  0.33658296  0.36934763  0.75913932     0.18000
N3660       N  0.35450626  0.35558694  0.75676686    -0.81100
H3661       H  0.30587454  0.34408948  0.77023093     0.33700
H3662       H  0.31023820  0.34948748  0.78282409     0.38200
H3663       H  0.35445562  0.36390188  0.75377665     0.33600
H3664       H  0.36070601  0.35519894  0.76301574     0.30300
H3665       H  0.36372121  0.33763354  0.79100465     0.33600
H3666       H  0.35950746  0.34779966  0.78210683     0.30300
H3667       H  0.36862581  0.31089591  0.74364988     0.38200
H3668       H  0.35462517  0.31129026  0.74165999     0.33700
C3669       C  0.38242852  0.22189739  0.73377895    -0.20100
C3670       C  0.39175465  0.22890490  0.73653140     0.36200
C3671       C  0.38987912  0.23937584  0.74170289    -0.26000
C3672       C  0.37901308  0.24299160  0.74460344     0.02600
C3673       C  0.36968241  0.23610654  0.74196627     0.27400
C3674       C  0.37147270  0.22566321  0.73653353    -0.25200
N3675       N  0.40315217  0.22536421  0.73430772    -0.82500
H3676       H  0.39701841  0.24474245  0.74367883     0.13200
C3677       C  0.37784896  0.25400350  0.75051741     0.02600
N3678       N  0.35847113  0.23968582  0.74490787    -0.81100
H3679       H  0.36425783  0.22044522  0.73447326     0.18000
C3680       C  0.37194322  0.26290504  0.74539608    -0.26000
C3681       C  0.37237979  0.27393950  0.74984530     0.36100
C3682       C  0.37909425  0.27611627  0.75948477    -0.20000
C3683       C  0.38438984  0.26700609  0.76495271    -0.25200
C3684       C  0.38373645  0.25599400  0.76065458     0.27400
H3685       H  0.36737376  0.26133124  0.73763852     0.13200
N3686       N  0.36654776  0.28297118  0.74423252    -0.82500
H3687       H  0.38928935  0.26852391  0.77251796     0.18000
N3688       N  0.38931631  0.24683380  0.76635018    -0.81100
H3689       H  0.36272010  0.28007180  0.73683555     0.33700
H3690       H  0.35996914  0.28549439  0.74955515     0.38200
H3691       H  0.39336054  0.24969771  0.77364427     0.33600
H3692       H  0.38309900  0.24113308  0.76900003     0.30300
H3693       H  0.35253390  0.23367731  0.74236450     0.33600
H3694       H  0.35800343  0.24008831  0.75372370     0.30300
H3695       H  0.40486157  0.21853746  0.73965669     0.38200
H3696       H  0.40891568  0.23169771  0.73643565     0.33700
C3697       C  0.32642265  0.13997664  0.72592459    -0.20100
C3698       C  0.33418730  0.14084232  0.71687014     0.36200
C3699       C  0.34221860  0.14962271  0.71679721    -0.26000
C3700       C  0.34268023  0.15764723  0.72550866     0.02600
C3701       C  0.33487190  0.15680208  0.73458566     0.27400
C3702       C  0.32680578  0.14809362  0.73457250    -0.25200
N3703       N  0.33373295  0.13300034  0.70763116    -0.82500
H3704       H  0.34811598  0.15030549  0.70980904     0.13200
C3705       C  0.35146558  0.16666945  0.72485106     0.02600
N3706       N  0.33493764  0.16442570  0.74403943    -0.81100
H3707       H  0.32091558  0.14753816  0.74157703     0.18000
C3708       C  0.34825572  0.17803559  0.72376284    -0.26000
C3709       C  0.35638491  0.18672275  0.72304339     0.36100
C3710       C  0.36800215  0.18395897  0.72323297    -0.20000
C3711       C  0.37115328  0.17254579  0.72406124    -0.25200
C3712       C  0.36303659  0.16391685  0.72501278     0.27400
H3713       H  0.33935725  0.18011270  0.72349053     0.13200
N3714       N  0.35286683  0.19828757  0.72197451    -0.82500
H3715       H  0.38002247  0.17034925  0.72428294     0.18000
N3716       N  0.36649169  0.15235203  0.72628442    -0.81100
H3717       H  0.34406345  0.19887098  0.72208269     0.33700
H3718       H  0.35551628  0.20118277  0.71404188     0.38200
H3719       H  0.37529148  0.15172117  0.72620442     0.33600
H3720       H  0.36381318  0.14960865  0.73426168     0.30300
H3721       H  0.33642407  0.15963778  0.75132192     0.33600
H3722       H  0.34155956  0.17020465  0.74355259     0.30300
H3723       H  0.32603628  0.13420672  0.70350185     0.38200
H3724       H  0.34005853  0.13477011  0.70170447     0.33700
C3725       C  0.05746091  0.31091760  0.68813659    -0.20100
C3726       C  0.06715908  0.30876540  0.68152496     0.36200
C3727       C  0.07744290  0.30634694  0.68688687    -0.26000
C3728       C  0.07822311  0.30603656  0.69870205     0.02600
C3729       C  0.06849032  0.30793630  0.70532094     0.27400
C3730       C  0.05816525  0.31029670  0.69995846    -0.25200
N3731       N  0.06650013  0.30895375  0.66939351    -0.82500
H3732       H  0.08493342  0.30481717  0.68184497     0.13200
C3733       C  0.08935616  0.30390044  0.70400259     0.02600
N3734       N  0.06917253  0.30751823  0.71744266    -0.81100
H3735       H  0.05070436  0.31192496  0.70501078     0.18000
C3736       C  0.09442765  0.31241709  0.71045770    -0.26000
C3737       C  0.10506509  0.31079826  0.71546413     0.36100
C3738       C  0.11075805  0.30043478  0.71392318    -0.20000
C3739       C  0.10560219  0.29190223  0.70750199    -0.25200
C3740       C  0.09499247  0.29354531  0.70248721     0.27400
H3741       H  0.09005247  0.32036798  0.71156887     0.13200
N3742       N  0.10997453  0.31955014  0.72225809    -0.82500
H3743       H  0.10992450  0.28393647  0.70629964     0.18000
N3744       N  0.08990215  0.28475027  0.69587235    -0.81100
H3745       H  0.10474746  0.32665352  0.72244702     0.33700
H3746       H  0.11043159  0.31653196  0.73055743     0.38200
H3747       H  0.09517613  0.27768885  0.69550366     0.33600
H3748       H  0.08254138  0.28218427  0.70004681     0.30300
H3749       H  0.06129625  0.30919112  0.72106999     0.33600
H3750       H  0.07128162  0.29925511  0.71973308     0.30300
H3751       H  0.06111381  0.30240884  0.66694668     0.38200
H3752       H  0.07437886  0.30722729  0.66579663     0.33700
C3753       C  0.20423481  0.39429149  0.71595660    -0.20100
C3754       C  0.19349774  0.39757225  0.71180195     0.36200
C3755       C  0.19200188  0.40856674  0.70742376    -0.26000
C3756       C  0.20098591  0.41630011  0.70682841     0.02600
C3757       C  0.21170428  0.41298634  0.71069889     0.27400
C3758       C  0.21318207  0.40213825  0.71527202    -0.25200
N3759       N  0.18411168  0.38987505  0.71208995    -0.82500
H3760       H  0.18376069  0.41113956  0.70443007     0.13200
C3761       C  0.19911852  0.42782337  0.70206250     0.02600
N3762       N  0.22110572  0.42063655  0.70986754    -0.81100
H3763       H  0.22149334  0.39982884  0.71825989     0.18000
C3764       C  0.20166434  0.43737278  0.70860982    -0.26000
C3765       C  0.19994147  0.44839372  0.70442904     0.36100
C3766       C  0.19552437  0.44991211  0.69344480    -0.20000
C3767       C  0.19313526  0.44032191  0.68686975    -0.25200
C3768       C  0.19496138  0.42933486  0.69101148     0.27400
H3769       H  0.20484190  0.43620320  0.71711080     0.13200
N3770       N  0.20237908  0.45798254  0.71142637    -0.82500
H3771       H  0.18991977  0.44139303  0.67837523     0.18000
N3772       N  0.19271405  0.41970008  0.68399779    -0.81100
H3773       H  0.20569580  0.45539891  0.71919323     0.33700
H3774       H  0.19473210  0.46201173  0.71319192     0.38200
H3775       H  0.18966596  0.42224464  0.67610818     0.33600
H3776       H  0.20039561  0.41562071  0.68251826     0.30300
H3777       H  0.22841441  0.41695972  0.71315750     0.33600
H3778       H  0.22265509  0.42209359  0.70128157     0.30300
H3779       H  0.18577072  0.38351085  0.70621142     0.38200
H3780       H  0.17673921  0.39386459  0.70935058     0.33700
C3781       C  0.23044752  0.36943182  0.73632882    -0.20100
C3782       C  0.24022967  0.37438380  0.73152979     0.36200
C3783       C  0.25063507  0.37323488  0.73704535    -0.26000
C3784       C  0.25153077  0.36729253  0.74725181     0.02600
C3785       C  0.24184033  0.36227187  0.75204958     0.27400
C3786       C  0.23139435  0.36328254  0.74646612    -0.25200
N3787       N  0.23959284  0.38053643  0.72105319    -0.82500
H3788       H  0.25811247  0.37712298  0.73343831     0.13200
C3789       C  0.26270452  0.36686014  0.75286330     0.02600
N3790       N  0.24263843  0.35630085  0.76260609    -0.81100
H3791       H  0.22391240  0.35954072  0.75020611     0.18000
C3792       C  0.26439701  0.37297511  0.76283393    -0.26000
C3793       C  0.27527899  0.37434253  0.76735134     0.36100
C3794       C  0.28465749  0.36954423  0.76171237    -0.20000
C3795       C  0.28282655  0.36278781  0.75215729    -0.25200
C3796       C  0.27192876  0.36143017  0.74765822     0.27400
H3797       H  0.25725942  0.37705536  0.76684807     0.13200
N3798       N  0.27686023  0.38070084  0.77755908    -0.82500
H3799       H  0.28996996  0.35899324  0.74788408     0.18000
N3800       N  0.27019501  0.35484607  0.73762514    -0.81100
H3801       H  0.26913871  0.38370747  0.78060155     0.33700
H3802       H  0.27998222  0.37516421  0.78369444     0.38200
H3803       H  0.27783257  0.35147194  0.73476639     0.33600
H3804       H  0.26505077  0.34800037  0.73982287     0.30300
H3805       H  0.23473337  0.35318902  0.76504072     0.33600
H3806       H  0.24782425  0.34928543  0.76131011     0.30300
H3807       H  0.23733503  0.37481101  0.71473952     0.38200
H3808       H  0.24749675  0.38378114  0.71879543     0.33700
C3809       C  0.19231536  0.35533943  0.72655459    -0.20100
C3810       C  0.19089908  0.34774590  0.73572903     0.36200
C3811       C  0.18236218  0.33947132  0.73526330    -0.26000
C3812       C  0.17549054  0.33831905  0.72569802     0.02600
C3813       C  0.17695154  0.34579183  0.71651507     0.27400
C3814       C  0.18523032  0.35429468  0.71709730    -0.25200
N3815       N  0.19785040  0.34863368  0.74562689    -0.82500
H3816       H  0.18112766  0.33377139  0.74234277     0.13200
C3817       C  0.16665980  0.32936512  0.72545696     0.02600
N3818       N  0.17004808  0.34466186  0.70660822    -0.81100
H3819       H  0.18629743  0.36002018  0.71001444     0.18000
C3820       C  0.15529932  0.33265497  0.72494043    -0.26000
C3821       C  0.14655651  0.32464243  0.72466849     0.36100
C3822       C  0.14911916  0.31299132  0.72499018    -0.20000
C3823       C  0.16050889  0.30972305  0.72566119    -0.25200
C3824       C  0.16929447  0.31768877  0.72572346     0.27400
H3825       H  0.15318713  0.34155717  0.72479230     0.13200
N3826       N  0.13509774  0.32844430  0.72428751    -0.82500
H3827       H  0.16269167  0.30084325  0.72581612     0.18000
N3828       N  0.18070734  0.31354288  0.72581658    -0.81100
H3829       H  0.13410344  0.33341896  0.71704428     0.33700
H3830       H  0.13362904  0.33353701  0.73134241     0.38200
H3831       H  0.18183899  0.30868554  0.71853582     0.33600
H3832       H  0.18659937  0.32005854  0.72523813     0.30300
H3833       H  0.17214422  0.35083001  0.70061846     0.33600
H3834       H  0.17190752  0.33685815  0.70294116     0.30300
H3835       H  0.20590255  0.34577033  0.74344315     0.38200
H3836       H  0.19497148  0.34315698  0.75195785     0.33700
C3837       C  0.20521331  0.09918583  0.77575426    -0.20100
C3838       C  0.19394366  0.09546440  0.77751840     0.36200
C3839       C  0.19191308  0.08451613  0.78175587    -0.26000
C3840       C  0.20079248  0.07703737  0.78396074     0.02600
C3841       C  0.21197122  0.08051505  0.78187921     0.27400
C3842       C  0.21406978  0.09150678  0.77780650    -0.25200
N3843       N  0.18456196  0.10269658  0.77492162    -0.82500
H3844       H  0.18332394  0.08172778  0.78325982     0.13200
C3845       C  0.19825699  0.06564109  0.78865125     0.02600
N3846       N  0.22115922  0.07291171  0.78408237    -0.81100
H3847       H  0.22272772  0.09412642  0.77644814     0.18000
C3848       C  0.19992518  0.05603240  0.78195107    -0.26000
C3849       C  0.19746409  0.04512093  0.78610381     0.36100
C3850       C  0.19355468  0.04376783  0.79735241    -0.20000
C3851       C  0.19186565  0.05348382  0.80398395    -0.25200
C3852       C  0.19413273  0.06436214  0.79975128     0.27400
H3853       H  0.20296571  0.05709109  0.77336632     0.13200
N3854       N  0.19864659  0.03550639  0.77882331    -0.82500
H3855       H  0.18893233  0.05262312  0.81261468     0.18000
N3856       N  0.19234697  0.07413506  0.80671084    -0.81100
H3857       H  0.20165628  0.03796212  0.77087048     0.33700
H3858       H  0.19058789  0.03214446  0.77755327     0.38200
H3859       H  0.18918107  0.07178228  0.81463340     0.33600
H3860       H  0.20021228  0.07787722  0.80811905     0.30300
H3861       H  0.22887479  0.07670998  0.78205210     0.33600
H3862       H  0.22129347  0.07132617  0.79277963     0.30300
H3863       H  0.18449403  0.10388881  0.76616103     0.38200
H3864       H  0.17691839  0.09877404  0.77699163     0.33700
C3865       C  0.23313993  0.12675530  0.76131717    -0.20100
C3866       C  0.23548095  0.13469799  0.75262813     0.36200
C3867       C  0.24651770  0.13554855  0.74822791    -0.26000
C3868       C  0.25528251  0.12882754  0.75243322     0.02600
C3869       C  0.25311254  0.12127494  0.76138743     0.27400
C3870       C  0.24209149  0.12032203  0.76573683    -0.25200
N3871       N  0.22660714  0.14144682  0.74786516    -0.82500
H3872       H  0.24826421  0.14129536  0.74129481     0.13200
C3873       C  0.26640161  0.12885876  0.74663301     0.02600
N3874       N  0.26205881  0.11437209  0.76580177    -0.81100
H3875       H  0.24043119  0.11430924  0.77245963     0.18000
C3876       C  0.27572604  0.13414191  0.75164420    -0.26000
C3877       C  0.28654012  0.13353391  0.74665754     0.36100
C3878       C  0.28802416  0.12729025  0.73657799    -0.20000
C3879       C  0.27857994  0.12225338  0.73149597    -0.25200
C3880       C  0.26780647  0.12299033  0.73639682     0.27400
H3881       H  0.27456942  0.13861116  0.75954043     0.13200
N3882       N  0.29603954  0.13874080  0.75209511    -0.82500
H3883       H  0.27965043  0.11752980  0.72373581     0.18000
N3884       N  0.25829905  0.11758804  0.73115529    -0.81100
H3885       H  0.29361116  0.14227089  0.75981706     0.33700
H3886       H  0.29863706  0.14549265  0.74700660     0.38200
H3887       H  0.26072234  0.11370066  0.72360710     0.33600
H3888       H  0.25554375  0.11114689  0.73656250     0.30300
H3889       H  0.25909974  0.10930318  0.77242778     0.33600
H3890       H  0.26463269  0.10888991  0.75938315     0.30300
H3891       H  0.22433809  0.14742945  0.75392620     0.38200
H3892       H  0.22957699  0.14604941  0.74091050     0.33700
C3893       C  0.11184919  0.19424029  0.77692793    -0.20100
C3894       C  0.10721706  0.20240030  0.78428648     0.36200
C3895       C  0.09626351  0.20087918  0.78861887    -0.26000
C3896       C  0.08979657  0.19139759  0.78576584     0.02600
C3897       C  0.09439388  0.18319722  0.77844795     0.27400
C3898       C  0.10542418  0.18466584  0.77415271    -0.25200
N3899       N  0.11371059  0.21215209  0.78743748    -0.82500
H3900       H  0.09272207  0.20712409  0.79428496     0.13200
C3901       C  0.07837338  0.19009559  0.79086661     0.02600
N3902       N  0.08784959  0.17344313  0.77542433    -0.81100
H3903       H  0.10893537  0.17844747  0.76844166     0.18000
C3904       C  0.06873099  0.19068459  0.78402029    -0.26000
C3905       C  0.05780201  0.18979763  0.78871759     0.36100
C3906       C  0.05653180  0.18826434  0.80051082    -0.20000
C3907       C  0.06622416  0.18775512  0.80731103    -0.25200
C3908       C  0.07709782  0.18866362  0.80262918     0.27400
H3909       H  0.06975566  0.19185313  0.77498882     0.13200
N3910       N  0.04805676  0.19019199  0.78152753    -0.82500
H3911       H  0.06531109  0.18661403  0.81635659     0.18000
N3912       N  0.08688476  0.18807670  0.80976254    -0.81100
H3913       H  0.05045726  0.19145156  0.77310663     0.33700
H3914       H  0.04415212  0.18227870  0.78190514     0.38200
H3915       H  0.08451668  0.18710561  0.81822976     0.33600
H3916       H  0.09136901  0.18081006  0.80755004     0.30300
H3917       H  0.09240356  0.16827552  0.76990515     0.33600
H3918       H  0.08647443  0.16872721  0.78278504     0.30300
H3919       H  0.12069069  0.20932310  0.79202509     0.38200
H3920       H  0.10907458  0.21735329  0.79285554     0.33700
C3921       C  0.13851805  0.21927084  0.75741148    -0.20100
C3922       C  0.13689080  0.22916490  0.76381394     0.36200
C3923       C  0.13794039  0.23974933  0.75853626    -0.26000
C3924       C  0.14050459  0.24060475  0.74699735     0.02600
C3925       C  0.14260573  0.23074812  0.74068497     0.27400
C3926       C  0.14176747  0.22013405  0.74602334    -0.25200
N3927       N  0.13397658  0.22839664  0.77559503    -0.82500
H3928       H  0.13629974  0.24737123  0.76331219     0.13200
C3929       C  0.13927275  0.25172970  0.74141647     0.02600
N3930       N  0.14515599  0.23155443  0.72882436    -0.81100
H3931       H  0.14301631  0.21250458  0.74114413     0.18000
C3932       C  0.14874467  0.25845586  0.73910882    -0.26000
C3933       C  0.14754916  0.26932977  0.73434638     0.36100
C3934       C  0.13659574  0.27355863  0.73201647    -0.20000
C3935       C  0.12720201  0.26658403  0.73418564    -0.25200
C3936       C  0.12843655  0.25575138  0.73879921     0.27400
H3937       H  0.15706084  0.25522848  0.74109247     0.13200
N3938       N  0.15739772  0.27599049  0.73185078    -0.82500
H3939       H  0.11876912  0.26962865  0.73244520     0.18000
N3940       N  0.11869240  0.24883362  0.74103609    -0.81100
H3941       H  0.16472353  0.27171663  0.73426783     0.33700
H3942       H  0.15784292  0.27695023  0.72307250     0.38200
H3943       H  0.11129410  0.25307139  0.73878583     0.33600
H3944       H  0.11921040  0.24174040  0.73582138     0.30300
H3945       H  0.14647248  0.22352491  0.72541892     0.33600
H3946       H  0.13806065  0.23486726  0.72476850     0.30300
H3947       H  0.14076445  0.22462921  0.77978044     0.38200
H3948       H  0.13301501  0.23644636  0.77907074     0.33700
C3949       C  0.19371390  0.13887416  0.76911168    -0.20100
C3950       C  0.19577027  0.15021142  0.77237208     0.36200
C3951       C  0.18694032  0.15809814  0.77221262    -0.26000
C3952       C  0.17603556  0.15499900  0.76885738     0.02600
C3953       C  0.17385732  0.14373147  0.76576501     0.27400
C3954       C  0.18268715  0.13578326  0.76597862    -0.25200
N3955       N  0.20659504  0.15391367  0.77624621    -0.82500
H3956       H  0.18861231  0.16674643  0.77467315     0.13200
C3957       C  0.16703136  0.16369742  0.76828124     0.02600
N3958       N  0.16273705  0.14047233  0.76219104    -0.81100
H3959       H  0.18098033  0.12714970  0.76350240     0.18000
C3960       C  0.16550168  0.16974784  0.75820513    -0.26000
C3961       C  0.15712929  0.17805109  0.75727140     0.36100
C3962       C  0.14991835  0.18030468  0.76658099    -0.20000
C3963       C  0.15140030  0.17411237  0.77662661    -0.25200
C3964       C  0.15996179  0.16592162  0.77761228     0.27400
H3965       H  0.17090537  0.16802297  0.75100856     0.13200
N3966       N  0.15598109  0.18380150  0.74666727    -0.82500
H3967       H  0.14602404  0.17586439  0.78383358     0.18000
N3968       N  0.16167194  0.16004006  0.78811280    -0.81100
H3969       H  0.15776147  0.19235890  0.74780255     0.33700
H3970       H  0.14765844  0.18291651  0.74389384     0.38200
H3971       H  0.15591416  0.16281396  0.79421188     0.33600
H3972       H  0.15994251  0.15149772  0.78676930     0.30300
H3973       H  0.16256823  0.13192486  0.76001366     0.33600
H3974       H  0.15728906  0.14138493  0.76908705     0.30300
H3975       H  0.20914431  0.14868883  0.78290074     0.38200
H3976       H  0.21238679  0.15326816  0.76962085     0.33700
C3977       C  0.69842890  0.19015125  0.54286588    -0.20100
C3978       C  0.69015842  0.18900506  0.55145304     0.36200
C3979       C  0.69186436  0.19417468  0.56199812    -0.26000
C3980       C  0.70144195  0.20080667  0.56407943     0.02600
C3981       C  0.70948408  0.20234387  0.55536872     0.27400
C3982       C  0.70792845  0.19694778  0.54489119    -0.25200
N3983       N  0.67992537  0.18282725  0.54938601    -0.82500
H3984       H  0.68567361  0.19302199  0.56866090     0.13200
C3985       C  0.70304056  0.20587918  0.57549222     0.02600
N3986       N  0.71917266  0.20941694  0.55719300    -0.81100
H3987       H  0.71422897  0.19796189  0.53831271     0.18000
C3988       C  0.71289420  0.20341726  0.58156248    -0.26000
C3989       C  0.71475725  0.20794198  0.59237402     0.36100
C3990       C  0.70659115  0.21513281  0.59725933    -0.20000
C3991       C  0.69658678  0.21736710  0.59132470    -0.25200
C3992       C  0.69476787  0.21290048  0.58044947     0.27400
H3993       H  0.71911857  0.19782245  0.57787766     0.13200
N3994       N  0.72483079  0.20509488  0.59849372    -0.82500
H3995       H  0.69031787  0.22288474  0.59504948     0.18000
N3996       N  0.68464908  0.21561218  0.57434561    -0.81100
H3997       H  0.72997332  0.19974373  0.59371865     0.33700
H3998       H  0.72239126  0.20053206  0.60567661     0.38200
H3999       H  0.67942622  0.22084794  0.57916133     0.33600
H4000       H  0.68700456  0.22024560  0.56718095     0.30300
H4001       H  0.72428862  0.20964527  0.54998089     0.33600
H4002       H  0.71626320  0.21764786  0.55846466     0.30300
H4003       H  0.67547565  0.18713922  0.54309601     0.38200
H4004       H  0.67476162  0.18277577  0.55656707     0.33700
C4005       C  0.70659009  0.18537229  0.44852180    -0.20100
C4006       C  0.71820913  0.18766794  0.44705685     0.36200
C4007       C  0.72243219  0.18994155  0.43614853    -0.26000
C4008       C  0.71531032  0.18997772  0.42668041     0.02600
C4009       C  0.70368556  0.18784438  0.42816958     0.27400
C4010       C  0.69948279  0.18545238  0.43903645    -0.25200
N4011       N  0.72574479  0.18734105  0.45654830    -0.82500
H4012       H  0.73137349  0.19149097  0.43497703     0.13200
C4013       C  0.72011593  0.19224994  0.41524903     0.02600
N4014       N  0.69618135  0.18822245  0.41864707    -0.81100
H4015       H  0.69055878  0.18375729  0.44012881     0.18000
C4016       C  0.71857903  0.18433745  0.40658517    -0.26000
C4017       C  0.72261275  0.18634516  0.39554925     0.36100
C4018       C  0.72866140  0.19643662  0.39315814    -0.20000
C4019       C  0.73031313  0.20423455  0.40198787    -0.25200
C4020       C  0.72603467  0.20230812  0.41291308     0.27400
H4021       H  0.71405978  0.17658606  0.40843158     0.13200
N4022       N  0.72042866  0.17819923  0.38683925    -0.82500
H4023       H  0.73489416  0.21199366  0.40039046     0.18000
N4024       N  0.72754093  0.21061840  0.42161865    -0.81100
H4025       H  0.71642045  0.17105504  0.39017493     0.33700
H4026       H  0.71468475  0.18185187  0.38122943     0.38200
H4027       H  0.73213588  0.21752893  0.41856387     0.33600
H4028       H  0.71955635  0.21365934  0.42382801     0.30300
H4029       H  0.68790394  0.18642642  0.42115984     0.33600
H4030       H  0.69617343  0.19650564  0.41556620     0.30300
H4031       H  0.73397835  0.18932545  0.45403125     0.38200
H4032       H  0.72593394  0.17902761  0.45953765     0.33700
C4033       C  0.65319280  0.12663678  0.49563710    -0.20100
C4034       C  0.65377392  0.11675886  0.50232472     0.36200
C4035       C  0.64455513  0.10927192  0.50251880    -0.26000
C4036       C  0.63484735  0.11146610  0.49614018     0.02600
C4037       C  0.63432140  0.12122040  0.48933207     0.27400
C4038       C  0.64351318  0.12870225  0.48913239    -0.25200
N4039       N  0.66375937  0.11427770  0.50873163    -0.82500
H4040       H  0.64491784  0.10168410  0.50764484     0.13200
C4041       C  0.62532959  0.10337904  0.49649189     0.02600
N4042       N  0.62444690  0.12346606  0.48266338    -0.81100
H4043       H  0.64303256  0.13628774  0.48401900     0.18000
C4044       C  0.61514799  0.10659254  0.50157324    -0.26000
C4045       C  0.60576313  0.09931041  0.50168120     0.36100
C4046       C  0.60666449  0.08847730  0.49666615    -0.20000
C4047       C  0.61699857  0.08529776  0.49171286    -0.25200
C4048       C  0.62629539  0.09265469  0.49152030     0.27400
H4049       H  0.61449694  0.11490235  0.50533044     0.13200
N4050       N  0.59532600  0.10302362  0.50665160    -0.82500
H4051       H  0.61784533  0.07704248  0.48789266     0.18000
N4052       N  0.63668565  0.08934988  0.48617371    -0.81100
H4053       H  0.59624599  0.11103091  0.51023518     0.33700
H4054       H  0.58946194  0.10389172  0.50012084     0.38200
H4055       H  0.63604491  0.08116212  0.48295678     0.33600
H4056       H  0.63797620  0.09469781  0.47924099     0.30300
H4057       H  0.62536904  0.13103808  0.47818798     0.33600
H4058       H  0.62378626  0.11705947  0.47663897     0.30300
H4059       H  0.67035280  0.11300939  0.50298426     0.38200
H4060       H  0.66278526  0.10671526  0.51321315     0.33700
C4061       C  0.56935123  0.07552973  0.51030191    -0.20100
C4062       C  0.57079604  0.07796096  0.52189019     0.36200
C4063       C  0.56125568  0.07901428  0.52888661    -0.26000
C4064       C  0.55036287  0.07766715  0.52453278     0.02600
C4065       C  0.54886844  0.07536535  0.51296139     0.27400
C4066       C  0.55840467  0.07422909  0.50596044    -0.25200
N4067       N  0.58192736  0.07909702  0.52655668    -0.82500
H4068       H  0.56229471  0.08077804  0.53780710     0.13200
C4069       C  0.54061605  0.07860039  0.53228331     0.02600
N4070       N  0.53769355  0.07442807  0.50834884    -0.81100
H4071       H  0.55729710  0.07246795  0.49704855     0.18000
C4072       C  0.53600783  0.08925639  0.53448076    -0.26000
C4073       C  0.52702711  0.09053402  0.54216854     0.36100
C4074       C  0.52259870  0.08091245  0.54773051    -0.20000
C4075       C  0.52717123  0.07022977  0.54536904    -0.25200
C4076       C  0.53623367  0.06899482  0.53779590     0.27400
H4077       H  0.53948784  0.09659167  0.53021895     0.13200
N4078       N  0.52234832  0.10152663  0.54426248    -0.82500
H4079       H  0.52387284  0.06285065  0.54969722     0.18000
N4080       N  0.54127166  0.05810627  0.53598100    -0.81100
H4081       H  0.52663952  0.10768686  0.53957741     0.33700
H4082       H  0.51402986  0.10147925  0.54134022     0.38200
H4083       H  0.53723884  0.05195933  0.54090717     0.33600
H4084       H  0.53993593  0.05586826  0.52755630     0.30300
H4085       H  0.53806943  0.07295838  0.49964602     0.33600
H4086       H  0.53384073  0.06733928  0.51195469     0.30300
H4087       H  0.58592353  0.07126328  0.52585335     0.38200
H4088       H  0.58149660  0.08092770  0.53518732     0.33700
C4089       C  0.46169377  0.18751786  0.68889381    -0.20100
C4090       C  0.45826862  0.19819959  0.69296141     0.36200
C4091       C  0.44757974  0.19938118  0.69808630    -0.26000
C4092       C  0.44014518  0.19018740  0.69905904     0.02600
C4093       C  0.44352540  0.17954089  0.69498912     0.27400
C4094       C  0.45421674  0.17832804  0.68992985    -0.25200
N4095       N  0.46545606  0.20788564  0.69155973    -0.82500
H4096       H  0.44490166  0.20758349  0.70110589     0.13200
C4097       C  0.42874876  0.19187971  0.70413472     0.02600
N4098       N  0.43610185  0.16998702  0.69608679    -0.81100
H4099       H  0.45677139  0.17009835  0.68689332     0.18000
C4100       C  0.41909291  0.18996579  0.69754373    -0.26000
C4101       C  0.40817500  0.19165680  0.70197283     0.36100
C4102       C  0.40690830  0.19541886  0.71320932    -0.20000
C4103       C  0.41656791  0.19737428  0.71978014    -0.25200
C4104       C  0.42746570  0.19552658  0.71540339     0.27400
H4105       H  0.42010448  0.18727989  0.68885281     0.13200
N4106       N  0.39843060  0.19012506  0.69493133    -0.82500
H4107       H  0.41558544  0.20028921  0.72840201     0.18000
N4108       N  0.43723775  0.19729613  0.72235194    -0.81100
H4109       H  0.40086793  0.18803718  0.68669890     0.33700
H4110       H  0.39395366  0.18317281  0.69805181     0.38200
H4111       H  0.43485422  0.20000453  0.73041561     0.33600
H4112       H  0.44120964  0.18948647  0.72340391     0.30300
H4113       H  0.43980908  0.16276955  0.69262738     0.33600
H4114       H  0.43501317  0.16838404  0.70471691     0.30300
H4115       H  0.46624361  0.20942786  0.68288668     0.38200
H4116       H  0.46170630  0.21506473  0.69505425     0.33700
C4117       C  0.55426143  0.20379525  0.67526858    -0.20100
C4118       C  0.56189217  0.20713569  0.66668434     0.36200
C4119       C  0.57260691  0.21129579  0.66963389    -0.26000
C4120       C  0.57595263  0.21215781  0.68097536     0.02600
C4121       C  0.56818350  0.20915247  0.68957672     0.27400
C4122       C  0.55737940  0.20514378  0.68662397    -0.25200
N4123       N  0.55869947  0.20640529  0.65499551    -0.82500
H4124       H  0.57841287  0.21389486  0.66302748     0.13200
C4125       C  0.58760664  0.21622300  0.68361775     0.02600
N4126       N  0.57139011  0.20988188  0.70126043    -0.81100
H4127       H  0.55153920  0.20260083  0.69322047     0.18000
C4128       C  0.58910684  0.22538020  0.69097514    -0.26000
C4129       C  0.59994358  0.22956422  0.69348922     0.36100
C4130       C  0.60954695  0.22460670  0.68837896    -0.20000
C4131       C  0.60802793  0.21555916  0.68089496    -0.25200
C4132       C  0.59721433  0.21118010  0.67863570     0.27400
H4133       H  0.58176253  0.22937208  0.69468586     0.13200
N4134       N  0.60119294  0.23892376  0.70109912    -0.82500
H4135       H  0.61535471  0.21161992  0.67709131     0.18000
N4136       N  0.59597034  0.20146587  0.67148520    -0.81100
H4137       H  0.59334391  0.24148473  0.70422637     0.33700
H4138       H  0.60443189  0.24571878  0.69644963     0.38200
H4139       H  0.60382499  0.19876371  0.66849711     0.33600
H4140       H  0.59273730  0.19489964  0.67645992     0.30300
H4141       H  0.56471733  0.20740197  0.70651317     0.33600
H4142       H  0.57792214  0.20410863  0.70259812     0.30300
H4143       H  0.55199799  0.21199446  0.65371586     0.38200
H4144       H  0.56528524  0.20912469  0.64975004     0.33700
C4145       C  0.50800840  0.14241135  0.62323735    -0.20100
C4146       C  0.51671882  0.13445367  0.62159062     0.36200
C4147       C  0.51593460  0.12672223  0.61263983    -0.26000
C4148       C  0.50662652  0.12673862  0.60533304     0.02600
C4149       C  0.49789783  0.13465864  0.60700009     0.27400
C4150       C  0.49865037  0.14235834  0.61597976    -0.25200
N4151       N  0.52614683  0.13400680  0.62919511    -0.82500
H4152       H  0.52250676  0.12047302  0.61148891     0.13200
C4153       C  0.50598512  0.11813630  0.59624147     0.02600
N4154       N  0.48835181  0.13488959  0.59952735    -0.81100
H4155       H  0.49196846  0.14847018  0.61721930     0.18000
C4156       C  0.49663223  0.11091497  0.59580150    -0.26000
C4157       C  0.49589123  0.10237937  0.58766255     0.36100
C4158       C  0.50483444  0.10074936  0.57986576    -0.20000
C4159       C  0.51411740  0.10817787  0.58021428    -0.25200
C4160       C  0.51473303  0.11689057  0.58823943     0.27400
H4161       H  0.48987042  0.11182380  0.60191933     0.13200
N4162       N  0.48597409  0.09547280  0.58739318    -0.82500
H4163       H  0.52100491  0.10717002  0.57426856     0.18000
N4164       N  0.52419637  0.12449819  0.58829312    -0.81100
H4165       H  0.48508868  0.09151819  0.59525869     0.33700
H4166       H  0.47899459  0.10072511  0.58616874     0.38200
H4167       H  0.52992505  0.12242885  0.58189115     0.33600
H4168       H  0.52115426  0.13256875  0.58641231     0.30300
H4169       H  0.48265920  0.14118059  0.60194222     0.33600
H4170       H  0.49130493  0.13708607  0.59147990     0.30300
H4171       H  0.52305061  0.13169369  0.63715690     0.38200
H4172       H  0.53181242  0.12769545  0.62676798     0.33700
C4173       C  0.48898393  0.06470979  0.56615973    -0.20100
C4174       C  0.47789310  0.06664633  0.57019057     0.36200
C4175       C  0.47030992  0.05756199  0.57104212    -0.26000
C4176       C  0.47351762  0.04665296  0.56785421     0.02600
C4177       C  0.48457644  0.04464729  0.56398310     0.27400
C4178       C  0.49217772  0.05370846  0.56309218    -0.25200
N4179       N  0.47424271  0.07783449  0.57310644    -0.82500
H4180       H  0.46174524  0.05902761  0.57391848     0.13200
C4181       C  0.46500002  0.03752545  0.56803959     0.02600
N4182       N  0.48802555  0.03340116  0.56102747    -0.81100
H4183       H  0.50068896  0.05213560  0.56012480     0.18000
C4184       C  0.46158761  0.03276724  0.55778601    -0.26000
C4185       C  0.45323231  0.02436973  0.55746695     0.36100
C4186       C  0.44830974  0.02051878  0.56769276    -0.20000
C4187       C  0.45171298  0.02540031  0.57795664    -0.25200
C4188       C  0.46004970  0.03383733  0.57823089     0.27400
H4189       H  0.46533206  0.03579435  0.54997438     0.13200
N4190       N  0.44958152  0.01995881  0.54678100    -0.82500
H4191       H  0.44803332  0.02246244  0.58582692     0.18000
N4192       N  0.46360969  0.03859810  0.58880110    -0.81100
H4193       H  0.45416794  0.02357898  0.54013049     0.33700
H4194       H  0.44118174  0.02240075  0.54565999     0.38200
H4195       H  0.45912522  0.03498048  0.59552153     0.33600
H4196       H  0.47208191  0.03644143  0.58996467     0.30300
H4197       H  0.49643212  0.03335115  0.55831910     0.33600
H4198       H  0.48767729  0.02848634  0.56837686     0.30300
H4199       H  0.47427756  0.08267634  0.56570338     0.38200
H4200       H  0.46591858  0.07774413  0.57606202     0.33700
C4201       C  0.32441454  0.04590910  0.69389606    -0.20100
C4202       C  0.32312386  0.05564499  0.68707372     0.36200
C4203       C  0.32106083  0.06617155  0.69215553    -0.26000
C4204       C  0.32028983  0.06729555  0.70393600     0.02600
C4205       C  0.32122956  0.05750559  0.71076543     0.27400
C4206       C  0.32315201  0.04690956  0.70566085    -0.25200
N4207       N  0.32376839  0.05480011  0.67497082    -0.82500
H4208       H  0.31999798  0.07357779  0.68687047     0.13200
C4209       C  0.31836163  0.07876218  0.70890201     0.02600
N4210       N  0.32049435  0.05839161  0.72286100    -0.81100
H4211       H  0.32410668  0.03947017  0.71091970     0.18000
C4212       C  0.30919049  0.08048515  0.71620199    -0.26000
C4213       C  0.30694336  0.09114903  0.72094206     0.36100
C4214       C  0.31393106  0.10052760  0.71814612    -0.20000
C4215       C  0.32311931  0.09875734  0.71080025    -0.25200
C4216       C  0.32541521  0.08802725  0.70619000     0.27400
H4217       H  0.30369059  0.07343590  0.71819055     0.13200
N4218       N  0.29761186  0.09237389  0.72863937    -0.82500
H4219       H  0.32852766  0.10579749  0.70855333     0.18000
N4220       N  0.33491390  0.08650397  0.69876449    -0.81100
H4221       H  0.29314375  0.08479599  0.72945452     0.33700
H4222       H  0.30095264  0.09412499  0.73661539     0.38200
H4223       H  0.33919196  0.09413446  0.69752103     0.33600
H4224       H  0.34055884  0.08103719  0.70277502     0.30300
H4225       H  0.32133194  0.05044895  0.72664419     0.33600
H4226       H  0.32734443  0.06323904  0.72557571     0.30300
H4227       H  0.31700609  0.04979770  0.67231703     0.38200
H4228       H  0.32271396  0.06271851  0.67119220     0.33700
C4229       C  0.31931744  0.95119202  0.68449550    -0.20100
C4230       C  0.32587961  0.94124338  0.68364637     0.36200
C4231       C  0.32072003  0.93061693  0.68514088    -0.26000
C4232       C  0.30912463  0.92961515  0.68742835     0.02600
C4233       C  0.30260747  0.93956816  0.68845713     0.27400
C4234       C  0.30779930  0.95021036  0.68713591    -0.25200
N4235       N  0.33780036  0.94193717  0.68146118    -0.82500
H4236       H  0.32582145  0.92304774  0.68466119     0.13200
C4237       C  0.30404350  0.91813107  0.68911753     0.02600
N4238       N  0.29067962  0.93883710  0.69059075    -0.81100
H4239       H  0.30271453  0.95777822  0.68775342     0.18000
C4240       C  0.29770148  0.91593983  0.69890483    -0.26000
C4241       C  0.29291408  0.90528496  0.70097669     0.36100
C4242       C  0.29477188  0.89628324  0.69332045    -0.20000
C4243       C  0.30106458  0.89850460  0.68344682    -0.25200
C4244       C  0.30560198  0.90931966  0.68121225     0.27400
H4245       H  0.29646191  0.92256843  0.70507685     0.13200
N4246       N  0.28600647  0.90379043  0.71082619    -0.82500
H4247       H  0.30249105  0.89178112  0.67742646     0.18000
N4248       N  0.31170613  0.91140350  0.67089657    -0.81100
H4249       H  0.27933451  0.90954472  0.71040203     0.33700
H4250       H  0.29085000  0.90573337  0.71793428     0.38200
H4251       H  0.31214159  0.90407163  0.66601434     0.33600
H4252       H  0.30711232  0.91729990  0.66620086     0.30300
H4253       H  0.28712515  0.94689161  0.69115921     0.33600
H4254       H  0.28697338  0.93492155  0.68361435     0.30300
H4255       H  0.34152522  0.94595491  0.68836909     0.38200
H4256       H  0.34136316  0.93387850  0.68099924     0.33700
C4257       C  0.41615258  0.00134932  0.58607015    -0.20100
C4258       C  0.41258670  0.99095452  0.59079715     0.36200
C4259       C  0.40454476  0.99093710  0.59956153    -0.26000
C4260       C  0.39988577  0.00104738  0.60359557     0.02600
C4261       C  0.40322488  0.01139043  0.59866754     0.27400
C4262       C  0.41144409  0.01144386  0.59008899    -0.25200
N4263       N  0.41728343  0.98048267  0.58686317    -0.82500
H4264       H  0.40201924  0.98300835  0.60340313     0.13200
C4265       C  0.39169712  0.00072402  0.61314245     0.02600
N4266       N  0.39813931  0.02178261  0.60230770    -0.81100
H4267       H  0.41401771  0.01940630  0.58634965     0.18000
C4268       C  0.39402459  0.00689490  0.62298389    -0.26000
C4269       C  0.38648441  0.00690011  0.63218261     0.36100
C4270       C  0.37637814  0.00063002  0.63149687    -0.20000
C4271       C  0.37418727  0.99423288  0.62177355    -0.25200
C4272       C  0.38168879  0.99428754  0.61254582     0.27400
H4273       H  0.40183129  0.01163530  0.62352052     0.13200
N4274       N  0.38918131  0.01301900  0.64229752    -0.82500
H4275       H  0.36644318  0.98938954  0.62126677     0.18000
N4276       N  0.37910485  0.98798223  0.60251286    -0.81100
H4277       H  0.39692384  0.01717870  0.64141737     0.33700
H4278       H  0.39018331  0.00711655  0.64880596     0.38200
H4279       H  0.37145490  0.98366875  0.60345724     0.33600
H4280       H  0.37798960  0.99376954  0.59592166     0.30300
H4281       H  0.40151662  0.02863196  0.59783948     0.33600
H4282       H  0.38956870  0.02141076  0.60026174     0.30300
H4283       H  0.42586300  0.98046738  0.58890082     0.38200
H4284       H  0.41365165  0.97363469  0.59112856     0.33700
C4285       C  0.58586179  0.01193268  0.43748041    -0.20100
C4286       C  0.58144432  0.01027222  0.44850231     0.36200
C4287       C  0.58199068  0.01909674  0.45641302    -0.26000
C4288       C  0.58700483  0.02947752  0.45368064     0.02600
C4289       C  0.59164029  0.03110775  0.44282214     0.27400
C4290       C  0.59104572  0.02233415  0.43485933    -0.25200
N4291       N  0.57659460  0.99961134  0.45173607    -0.82500
H4292       H  0.57859585  0.01784441  0.46483988     0.13200
C4293       C  0.58728632  0.03855653  0.46231214     0.02600
N4294       N  0.59678056  0.04172468  0.43988105    -0.81100
H4295       H  0.59446671  0.02374669  0.42647382     0.18000
C4296       C  0.59770071  0.04253605  0.46625717    -0.26000
C4297       C  0.59827659  0.05090005  0.47466441     0.36100
C4298       C  0.58817022  0.05553628  0.47907477    -0.20000
C4299       C  0.57776363  0.05143985  0.47513249    -0.25200
C4300       C  0.57722072  0.04305136  0.46678308     0.27400
H4301       H  0.60540862  0.03892883  0.46289986     0.13200
N4302       N  0.60906911  0.05448092  0.47887809    -0.82500
H4303       H  0.56998220  0.05493919  0.47842585     0.18000
N4304       N  0.56648197  0.03914653  0.46272524    -0.81100
H4305       H  0.61561407  0.05032639  0.47465563     0.33700
H4306       H  0.60954976  0.05200272  0.48735298     0.38200
H4307       H  0.55988373  0.04324186  0.46692173     0.33600
H4308       H  0.56588628  0.04142366  0.45420307     0.30300
H4309       H  0.59983560  0.04154883  0.43158387     0.33600
H4310       H  0.59048351  0.04789640  0.44011793     0.30300
H4311       H  0.58308471  0.99363892  0.45165672     0.38200
H4312       H  0.57356156  0.99989283  0.46003825     0.33700
C4313       C  0.72646612  0.10351745  0.30004160    -0.20100
C4314       C  0.71909387  0.09778552  0.29263162     0.36200
C4315       C  0.71537612  0.08682513  0.29536870    -0.26000
C4316       C  0.71888643  0.08146149  0.30532685     0.02600
C4317       C  0.72612239  0.08720357  0.31281290     0.27400
C4318       C  0.72979523  0.09821433  0.31012760    -0.25200
N4319       N  0.71530019  0.10316913  0.28242429    -0.82500
H4320       H  0.70971408  0.08241439  0.28971370     0.13200
C4321       C  0.71465184  0.06992976  0.30793605     0.02600
N4322       N  0.72972169  0.08180219  0.32307917    -0.81100
H4323       H  0.73546490  0.10258470  0.31580425     0.18000
C4324       C  0.72196588  0.06065103  0.30715520    -0.26000
C4325       C  0.71816913  0.04960913  0.30957327     0.36100
C4326       C  0.70683604  0.04786729  0.31292876    -0.20000
C4327       C  0.69955659  0.05720550  0.31363833    -0.25200
C4328       C  0.70332506  0.06818526  0.31112175     0.27400
H4329       H  0.73065970  0.06205242  0.30465148     0.13200
N4330       N  0.72581859  0.04023454  0.30881328    -0.82500
H4331       H  0.69082445  0.05592553  0.31605613     0.18000
N4332       N  0.69569918  0.07759372  0.31177898    -0.81100
H4333       H  0.72682542  0.03694292  0.31695629     0.33700
H4334       H  0.73379333  0.04295250  0.30614410     0.38200
H4335       H  0.68762199  0.07488113  0.31411937     0.33600
H4336       H  0.69853576  0.08288685  0.31823465     0.30300
H4337       H  0.73510537  0.08710873  0.32761690     0.33600
H4338       H  0.72256976  0.08053974  0.32812444     0.30300
H4339       H  0.71046874  0.11017415  0.28474638     0.38200
H4340       H  0.70996456  0.09780847  0.27789305     0.33700
C4341       C  0.70093289  0.90200501  0.27115227    -0.20100
C4342       C  0.69259219  0.90385707  0.27949826     0.36200
C4343       C  0.69051761  0.91491644  0.28328939    -0.26000
C4344       C  0.69657794  0.92415537  0.27891792     0.02600
C4345       C  0.70477395  0.92232620  0.27045897     0.27400
C4346       C  0.70693273  0.91127687  0.26674687    -0.25200
N4347       N  0.68651493  0.89450667  0.28435270    -0.82500
H4348       H  0.68431956  0.91632464  0.28988612     0.13200
C4349       C  0.69446926  0.93565132  0.28350002     0.02600
N4350       N  0.71083361  0.93171220  0.26564754    -0.81100
H4351       H  0.71329778  0.90989871  0.26030413     0.18000
C4352       C  0.70346299  0.94179505  0.28815470    -0.26000
C4353       C  0.70175814  0.95251592  0.29294108     0.36100
C4354       C  0.69079449  0.95716959  0.29312057    -0.20000
C4355       C  0.68181673  0.95104683  0.28840196    -0.25200
C4356       C  0.68356128  0.94040174  0.28347332     0.27400
H4357       H  0.71181398  0.93808078  0.28827994     0.13200
N4358       N  0.71104418  0.95848649  0.29794999    -0.82500
H4359       H  0.67340900  0.95463308  0.28849520     0.18000
N4360       N  0.67432567  0.93441299  0.27838932    -0.81100
H4361       H  0.71854104  0.95393198  0.29702206     0.33700
H4362       H  0.70947517  0.95902772  0.30663254     0.38200
H4363       H  0.66685777  0.93905525  0.27908110     0.33600
H4364       H  0.67607202  0.93369127  0.26975383     0.30300
H4365       H  0.71658741  0.92893747  0.25954564     0.33600
H4366       H  0.70498554  0.93681143  0.26144714     0.30300
H4367       H  0.68063439  0.89733661  0.29030660     0.38200
H4368       H  0.69232020  0.88952838  0.28875419     0.33700
C4369       C  0.64014774  0.00060441  0.35663203    -0.20100
C4370       C  0.63487739  0.01047259  0.36078257     0.36200
C4371       C  0.62648944  0.00954291  0.36916789    -0.26000
C4372       C  0.62317207  0.99899125  0.37346964     0.02600
C4373       C  0.62805656  0.98910542  0.36897083     0.27400
C4374       C  0.63643451  0.99002207  0.36057919    -0.25200
N4375       N  0.63790810  0.02138977  0.35638837    -0.82500
H4376       H  0.62250615  0.01710798  0.37240395     0.13200
C4377       C  0.61485059  0.99845453  0.38292061     0.02600
N4378       N  0.62469919  0.97818354  0.37313275    -0.81100
H4379       H  0.64035745  0.98240856  0.35740463     0.18000
C4380       C  0.60506537  0.99188586  0.38180535    -0.26000
C4381       C  0.59727940  0.99074397  0.39074811     0.36100
C4382       C  0.59917971  0.99658545  0.40103700    -0.20000
C4383       C  0.60889206  0.00337822  0.40197012    -0.25200
C4384       C  0.61675767  0.00429322  0.39311056     0.27400
H4385       H  0.60354961  0.98752550  0.37391442     0.13200
N4386       N  0.58743922  0.98379614  0.38926228    -0.82500
H4387       H  0.61051778  0.00788098  0.40975199     0.18000
N4388       N  0.62677143  0.01101883  0.39448920    -0.81100
H4389       H  0.58681349  0.98106882  0.38088961     0.33700
H4390       H  0.58859310  0.97649587  0.39410814     0.38200
H4391       H  0.62686691  0.01485998  0.40243374     0.33600
H4392       H  0.63370315  0.00557201  0.39422658     0.30300
H4393       H  0.62901073  0.97177659  0.36886760     0.33600
H4394       H  0.62711071  0.97766037  0.38161097     0.30300
H4395       H  0.63558888  0.02159590  0.34787073     0.38200
H4396       H  0.63330943  0.02775159  0.36041536     0.33700
C4397       C  0.55567518  0.81722589  0.29042831    -0.20100
C4398       C  0.56573798  0.81566479  0.29663252     0.36200
C4399       C  0.57600976  0.81419752  0.29085623    -0.26000
C4400       C  0.57643650  0.81403737  0.27902421     0.02600
C4401       C  0.56638441  0.81532046  0.27279536     0.27400
C4402       C  0.55607423  0.81684651  0.27856779    -0.25200
N4403       N  0.56545774  0.81530773  0.30877775    -0.82500
H4404       H  0.58372799  0.81298303  0.29559767     0.13200
C4405       C  0.58747288  0.81211097  0.27336172     0.02600
N4406       N  0.56673108  0.81519377  0.26065298    -0.81100
H4407       H  0.54837026  0.81802749  0.27380104     0.18000
C4408       C  0.58929498  0.80198013  0.26759119    -0.26000
C4409       C  0.59986111  0.79942760  0.26277669     0.36100
C4410       C  0.60896919  0.80717019  0.26393355    -0.20000
C4411       C  0.60693047  0.81748889  0.26949184    -0.25200
C4412       C  0.59629745  0.82003527  0.27416241     0.27400
H4413       H  0.58243610  0.79595410  0.26697173     0.13200
N4414       N  0.60128736  0.78896160  0.25681548    -0.82500
H4415       H  0.61369032  0.82358145  0.27036484     0.18000
N4416       N  0.59442588  0.83060509  0.27980596    -0.81100
H4417       H  0.59394003  0.78407841  0.25723057     0.33700
H4418       H  0.60250602  0.79093689  0.24827891     0.38200
H4419       H  0.60176884  0.83550832  0.27972120     0.33600
H4420       H  0.58838838  0.83506758  0.27517123     0.30300
H4421       H  0.55862999  0.81624065  0.25733521     0.33600
H4422       H  0.57146604  0.82217782  0.25800819     0.30300
H4423       H  0.56069761  0.80824683  0.31115731     0.38200
H4424       H  0.57355833  0.81408639  0.31203846     0.33700
C4425       C  0.52438873  0.93609700  0.42095607    -0.20100
C4426       C  0.52183470  0.94738989  0.42386887     0.36200
C4427       C  0.53049681  0.95552683  0.42385586    -0.26000
C4428       C  0.54161136  0.95258266  0.42109423     0.02600
C4429       C  0.54423779  0.94129000  0.41848442     0.27400
C4430       C  0.53556653  0.93318494  0.41829487    -0.25200
N4431       N  0.51045939  0.95060344  0.42662708    -0.82500
H4432       H  0.52858297  0.96422659  0.42592095     0.13200
C4433       C  0.55042943  0.96144047  0.42093178     0.02600
N4434       N  0.55573371  0.93805964  0.41632030    -0.81100
H4435       H  0.53756983  0.92450567  0.41623227     0.18000
C4436       C  0.55605636  0.96415469  0.43096481    -0.26000
C4437       C  0.56453950  0.97248428  0.43111579     0.36100
C4438       C  0.56737263  0.97822554  0.42100573    -0.20000
C4439       C  0.56171011  0.97544310  0.41097182    -0.25200
C4440       C  0.55319786  0.96717238  0.41084931     0.27400
H4441       H  0.55386705  0.95968439  0.43867100     0.13200
N4442       N  0.57042678  0.97494629  0.44142213    -0.82500
H4443       H  0.56381377  0.97987965  0.40322265     0.18000
N4444       N  0.54716118  0.96476664  0.40060503    -0.81100
H4445       H  0.56728662  0.97002249  0.44807535     0.33700
H4446       H  0.57885598  0.97259700  0.44028852     0.38200
H4447       H  0.55004853  0.96991139  0.39400517     0.33600
H4448       H  0.54897010  0.95646340  0.39827083     0.30300
H4449       H  0.55627286  0.92937708  0.41484454     0.33600
H4450       H  0.55836360  0.94205050  0.40888073     0.30300
H4451       H  0.50556579  0.94953936  0.41936754     0.38200
H4452       H  0.51006646  0.95917354  0.42868746     0.33700
C4453       C  0.50789989  0.90254430  0.40284872    -0.20100
C4454       C  0.49793758  0.89856074  0.39764748     0.36200
C4455       C  0.49870657  0.89032544  0.38915127    -0.26000
C4456       C  0.50919065  0.88598982  0.38579054     0.02600
C4457       C  0.51910525  0.88977003  0.39112927     0.27400
C4458       C  0.51837743  0.89812453  0.39950270    -0.25200
N4459       N  0.48711815  0.90305093  0.40081749    -0.82500
H4460       H  0.49112056  0.88739065  0.38498630     0.13200
C4461       C  0.50969749  0.87763837  0.37650616     0.02600
N4462       N  0.52984114  0.88499979  0.38809521    -0.81100
H4463       H  0.52600694  0.90104791  0.40359423     0.18000
C4464       C  0.51532829  0.88048971  0.36645097    -0.26000
C4465       C  0.51587978  0.87287313  0.35737748     0.36100
C4466       C  0.51085876  0.86210468  0.35850350    -0.20000
C4467       C  0.50512841  0.85932898  0.36854800    -0.25200
C4468       C  0.50452080  0.86697756  0.37757520     0.27400
H4469       H  0.51913368  0.88877812  0.36563140     0.13200
N4470       N  0.52121868  0.87616496  0.34695092    -0.82500
H4471       H  0.50125505  0.85108197  0.36942896     0.18000
N4472       N  0.49876266  0.86394617  0.38785889    -0.81100
H4473       H  0.52448228  0.88434738  0.34754539     0.33700
H4474       H  0.51497947  0.87641398  0.34072351     0.38200
H4475       H  0.49536192  0.85582047  0.38726142     0.33600
H4476       H  0.50476777  0.86368374  0.39431146     0.30300
H4477       H  0.53630807  0.88866939  0.39283128     0.33600
H4478       H  0.52964920  0.87644348  0.39029386     0.30300
H4479       H  0.48702062  0.91158732  0.39854274     0.38200
H4480       H  0.48066470  0.89915065  0.39624950     0.33700
C4481       C  0.30456136  0.81831199  0.54134604    -0.20100
C4482       C  0.30060066  0.82726565  0.54816614     0.36200
C4483       C  0.29596805  0.82490615  0.55887140    -0.26000
C4484       C  0.29527543  0.81380830  0.56299496     0.02600
C4485       C  0.29905201  0.80483333  0.55609469     0.27400
C4486       C  0.30350620  0.80717612  0.54528144    -0.25200
N4487       N  0.30117140  0.83872066  0.54414903    -0.82500
H4488       H  0.29286377  0.83177232  0.56404843     0.13200
C4489       C  0.29069638  0.81173303  0.57458476     0.02600
N4490       N  0.29861513  0.79340664  0.56020843    -0.81100
H4491       H  0.30657366  0.80031559  0.54007611     0.18000
C4492       C  0.28176268  0.80407895  0.57609035    -0.26000
C4493       C  0.27763273  0.80141337  0.58693414     0.36100
C4494       C  0.28242783  0.80666043  0.59651962    -0.20000
C4495       C  0.29095856  0.81475448  0.59496340    -0.25200
C4496       C  0.29527997  0.81720052  0.58413757     0.27400
H4497       H  0.27806705  0.80007660  0.56875366     0.13200
N4498       N  0.26861725  0.79337118  0.58823171    -0.82500
H4499       H  0.29469186  0.81876109  0.60227816     0.18000
N4500       N  0.30457931  0.82491074  0.58285632    -0.81100
H4501       H  0.26614623  0.79019732  0.58038001     0.33700
H4502       H  0.26165618  0.79766665  0.59154328     0.38200
H4503       H  0.30695660  0.82821169  0.59068424     0.33600
H4504       H  0.31147847  0.82030266  0.57985022     0.30300
H4505       H  0.30169940  0.78781558  0.55411806     0.33600
H4506       H  0.30403617  0.79283910  0.56714355     0.30300
H4507       H  0.29590422  0.83935117  0.53710169     0.38200
H4508       H  0.29798128  0.84429301  0.55020315     0.33700
C4509       C  0.43197741  0.94155054  0.51094916    -0.20100
C4510       C  0.44236217  0.94547932  0.51536897     0.36200
C4511       C  0.44229691  0.95411329  0.52345532    -0.26000
C4512       C  0.43218218  0.95911377  0.52688460     0.02600
C4513       C  0.42189709  0.95570333  0.52204761     0.27400
C4514       C  0.42187310  0.94678475  0.51427006    -0.25200
N4515       N  0.45289438  0.94050783  0.51194824    -0.82500
H4516       H  0.45016631  0.95699921  0.52710287     0.13200
C4517       C  0.43253692  0.96801428  0.53551197     0.02600
N4518       N  0.41160480  0.96151936  0.52480352    -0.81100
H4519       H  0.41394702  0.94399143  0.51067892     0.18000
C4520       C  0.43520014  0.97905024  0.53221368    -0.26000
C4521       C  0.43541277  0.98782892  0.54014912     0.36100
C4522       C  0.43292111  0.98542396  0.55160316    -0.20000
C4523       C  0.43050196  0.97427298  0.55488211    -0.25200
C4524       C  0.43041108  0.96549921  0.54695294     0.27400
H4525       H  0.43696552  0.98081748  0.52338953     0.13200
N4526       N  0.43786701  0.99916955  0.53655675    -0.82500
H4527       H  0.42881302  0.97237832  0.56369310     0.18000
N4528       N  0.42852166  0.95402252  0.55050289    -0.81100
H4529       H  0.43968305  0.99942427  0.52790574     0.33700
H4530       H  0.43055626  0.00395978  0.53774329     0.38200
H4531       H  0.42742302  0.95359832  0.55926584     0.33600
H4532       H  0.42096926  0.95124049  0.54693381     0.30300
H4533       H  0.40484518  0.95816530  0.52024547     0.33600
H4534       H  0.40980351  0.96009516  0.53333270     0.30300
H4535       H  0.45454236  0.94321088  0.50368780     0.38200
H4536       H  0.45953246  0.94363951  0.51683276     0.33700
C4537       C  0.49019106  0.91859378  0.43680501    -0.20100
C4538       C  0.47867339  0.91738982  0.43404720     0.36200
C4539       C  0.47059618  0.91724903  0.44276032    -0.26000
C4540       C  0.47387175  0.91821022  0.45408226     0.02600
C4541       C  0.48536806  0.91917290  0.45686643     0.27400
C4542       C  0.49343413  0.91944046  0.44816634    -0.25200
N4543       N  0.47522007  0.91659421  0.42243848    -0.82500
H4544       H  0.46170598  0.91658283  0.44073768     0.13200
C4545       C  0.46511038  0.91892245  0.46290141     0.02600
N4546       N  0.48877535  0.91981126  0.46850233    -0.81100
H4547       H  0.50230039  0.92023169  0.45024665     0.18000
C4548       C  0.46146871  0.90908719  0.46843186    -0.26000
C4549       C  0.45309230  0.90957716  0.47686398     0.36100
C4550       C  0.44829987  0.92011220  0.47965980    -0.20000
C4551       C  0.45207992  0.92993261  0.47415493    -0.25200
C4552       C  0.46043234  0.92943997  0.46577760     0.27400
H4553       H  0.46522089  0.90105672  0.46619384     0.13200
N4554       N  0.44961386  0.89950613  0.48272671    -0.82500
H4555       H  0.44839470  0.93801915  0.47630829     0.18000
N4556       N  0.46408926  0.93953758  0.46005558    -0.81100
H4557       H  0.45398085  0.89248695  0.47964790     0.33700
H4558       H  0.45192658  0.90039302  0.49120077     0.38200
H4559       H  0.45964808  0.94655337  0.46303442     0.33600
H4560       H  0.47255799  0.94088735  0.46209825     0.30300
H4561       H  0.49756506  0.92027478  0.46910274     0.33600
H4562       H  0.48563136  0.92734535  0.47183106     0.30300
H4563       H  0.47727245  0.92423045  0.41847662     0.38200
H4564       H  0.46645721  0.91572193  0.42188665     0.33700
C4565       C  0.41261511  0.90755261  0.49703540    -0.20100
C4566       C  0.40141161  0.91139786  0.49840079     0.36200
C4567       C  0.39253550  0.90352239  0.49862530    -0.26000
C4568       C  0.39463809  0.89193352  0.49748002     0.02600
C4569       C  0.40583478  0.88807856  0.49632791     0.27400
C4570       C  0.41470512  0.89594444  0.49598991    -0.25200
N4571       N  0.39905513  0.92327574  0.49921202    -0.82500
H4572       H  0.38390376  0.90643753  0.49940536     0.13200
C4573       C  0.38499096  0.88397700  0.49694726     0.02600
N4574       N  0.40812599  0.87618845  0.49555182    -0.81100
H4575       H  0.42331159  0.89299889  0.49504895     0.18000
C4576       C  0.38347871  0.87751119  0.48717998    -0.26000
C4577       C  0.37448246  0.86984308  0.48623924     0.36100
C4578       C  0.36650431  0.86892923  0.49514825    -0.20000
C4579       C  0.36807379  0.87550376  0.50492773    -0.25200
C4580       C  0.37730735  0.88288283  0.50597620     0.27400
H4581       H  0.38946343  0.87837270  0.48028568     0.13200
N4582       N  0.37369314  0.86280982  0.47640193    -0.82500
H4583       H  0.36208917  0.87491363  0.51182941     0.18000
N4584       N  0.37898610  0.88919059  0.51620182    -0.81100
H4585       H  0.38009432  0.86473226  0.47060454     0.33700
H4586       H  0.37506365  0.85448168  0.47900723     0.38200
H4587       H  0.37259127  0.88741968  0.52205276     0.33600
H4588       H  0.38653132  0.88641690  0.51982793     0.30300
H4589       H  0.41679361  0.87475424  0.49472640     0.33600
H4590       H  0.40564338  0.87247566  0.50319425     0.30300
H4591       H  0.40134535  0.92700302  0.49151696     0.38200
H4592       H  0.39039844  0.92466077  0.50022388     0.33700
C4593       C  0.40702032  0.78339348  0.29971793    -0.20100
C4594       C  0.41088675  0.78604895  0.31075494     0.36200
C4595       C  0.42181657  0.79052597  0.31218261    -0.26000
C4596       C  0.42902771  0.79225028  0.30292292     0.02600
C4597       C  0.42518697  0.78983150  0.29196786     0.27400
C4598       C  0.41429236  0.78543308  0.29047751    -0.25200
N4599       N  0.40387058  0.78408735  0.32050032    -0.82500
H4600       H  0.42485010  0.79244538  0.32059443     0.13200
C4601       C  0.44066966  0.79647679  0.30475715     0.02600
N4602       N  0.43238913  0.79190767  0.28238035    -0.81100
H4603       H  0.41150417  0.78361026  0.28196855     0.18000
C4604       C  0.44987261  0.78950832  0.30209257    -0.26000
C4605       C  0.46104888  0.79324463  0.30360132     0.36100
C4606       C  0.46302449  0.80422651  0.30775728    -0.20000
C4607       C  0.45376946  0.81116962  0.31041096    -0.25200
C4608       C  0.44262300  0.80743059  0.30890106     0.27400
H4609       H  0.44829825  0.78106859  0.29894970     0.13200
N4610       N  0.47034311  0.78583270  0.30121829    -0.82500
H4611       H  0.45524009  0.81962539  0.31355167     0.18000
N4612       N  0.43327767  0.81473581  0.31144249    -0.81100
H4613       H  0.46742584  0.77807188  0.29820525     0.33700
H4614       H  0.47443429  0.78416372  0.30886023     0.38200
H4615       H  0.43615227  0.82251388  0.31445160     0.33600
H4616       H  0.42905724  0.81638806  0.30386791     0.30300
H4617       H  0.42834608  0.78962878  0.27488153     0.33600
H4618       H  0.43381063  0.80061185  0.28191469     0.30300
H4619       H  0.40306000  0.77534839  0.32148840     0.38200
H4620       H  0.40779632  0.78702382  0.32783158     0.33700
C4621       C  0.31179113  0.78083834  0.39371337    -0.20100
C4622       C  0.32249795  0.78249029  0.39880028     0.36200
C4623       C  0.32316212  0.78746218  0.40960185    -0.26000
C4624       C  0.31344895  0.79100716  0.41536814     0.02600
C4625       C  0.30281259  0.78946126  0.41034467     0.27400
C4626       C  0.30208680  0.78439100  0.39962676    -0.25200
N4627       N  0.33264678  0.77888190  0.39320395    -0.82500
H4628       H  0.33132162  0.78869247  0.41352641     0.13200
C4629       C  0.31452810  0.79642707  0.42664354     0.02600
N4630       N  0.29278053  0.79300272  0.41619711    -0.81100
H4631       H  0.29384338  0.78322814  0.39586939     0.18000
C4632       C  0.31283593  0.80809408  0.42763224    -0.26000
C4633       C  0.31397357  0.81357461  0.43811756     0.36100
C4634       C  0.31685188  0.80723219  0.44784072    -0.20000
C4635       C  0.31824141  0.79549645  0.44687723    -0.25200
C4636       C  0.31717754  0.79004295  0.43635488     0.27400
H4637       H  0.31068342  0.81293959  0.42016115     0.13200
N4638       N  0.31209487  0.82553316  0.43894398    -0.82500
H4639       H  0.32044907  0.79061300  0.45430382     0.18000
N4640       N  0.31885933  0.77806502  0.43545045    -0.81100
H4641       H  0.31010061  0.82894080  0.43103647     0.33700
H4642       H  0.30502814  0.82675212  0.44410770     0.38200
H4643       H  0.32084864  0.77460270  0.44333466     0.33600
H4644       H  0.31118670  0.77446545  0.43300820     0.30300
H4645       H  0.28561228  0.79133040  0.41134649     0.33600
H4646       H  0.29205824  0.78810031  0.42352819     0.30300
H4647       H  0.33406220  0.78439974  0.38643542     0.38200
H4648       H  0.33961092  0.77977844  0.39853479     0.33700
C4649       C  0.32635885  0.76965192  0.35589951    -0.20100
C4650       C  0.33792813  0.76795565  0.35852605     0.36200
C4651       C  0.34608350  0.76906464  0.34994393    -0.26000
C4652       C  0.34306673  0.77125633  0.33869055     0.02600
C4653       C  0.33149887  0.77267779  0.33600197     0.27400
C4654       C  0.32335436  0.77176324  0.34460483    -0.25200
N4655       N  0.34173604  0.76464793  0.36959510    -0.82500
H4656       H  0.35489258  0.76776511  0.35202005     0.13200
C4657       C  0.35212471  0.77148872  0.32992036     0.02600
N4658       N  0.32767463  0.77525014  0.32474829    -0.81100
H4659       H  0.31455724  0.77302825  0.34245625     0.18000
C4660       C  0.35234245  0.76309426  0.32157647    -0.26000
C4661       C  0.36067210  0.76304749  0.31305923     0.36100
C4662       C  0.36890292  0.77171007  0.31276010    -0.20000
C4663       C  0.36892018  0.77984306  0.32141878    -0.25200
C4664       C  0.36064268  0.77981066  0.32998536     0.27400
H4665       H  0.34597697  0.75651877  0.32175889     0.13200
N4666       N  0.36091583  0.75410028  0.30488514    -0.82500
H4667       H  0.37528196  0.78641999  0.32138336     0.18000
N4668       N  0.36079608  0.78824071  0.33870250    -0.81100
H4669       H  0.36837037  0.74955641  0.30614274     0.33700
H4670       H  0.35427075  0.74844233  0.30626805     0.38200
H4671       H  0.36767648  0.79367725  0.33762480     0.33600
H4672       H  0.35352834  0.79315416  0.33780610     0.30300
H4673       H  0.32352260  0.78302835  0.32505717     0.33600
H4674       H  0.33437850  0.77636515  0.31913010     0.30300
H4675       H  0.33501374  0.76240927  0.37483219     0.38200
H4676       H  0.34636921  0.75719347  0.36869211     0.33700
C4677       C  0.10957565  0.72386837  0.30024466    -0.20100
C4678       C  0.10024063  0.72594789  0.29306308     0.36200
C4679       C  0.08966909  0.72122130  0.29558755    -0.26000
C4680       C  0.08799130  0.71461127  0.30528473     0.02600
C4681       C  0.09710512  0.71290081  0.31276639     0.27400
C4682       C  0.10778188  0.71747084  0.31014087    -0.25200
N4683       N  0.10135619  0.73285400  0.28316133    -0.82500
H4684       H  0.08274925  0.72256916  0.28977023     0.13200
C4685       C  0.07682585  0.70906695  0.30712812     0.02600
N4686       N  0.09548873  0.70649105  0.32298289    -0.81100
H4687       H  0.11475359  0.71588321  0.31582229     0.18000
C4688       C  0.07639153  0.69730208  0.30845302    -0.26000
C4689       C  0.06606521  0.69161014  0.30981290     0.36100
C4690       C  0.05587904  0.69781745  0.30988702    -0.20000
C4691       C  0.05627260  0.70956389  0.30830492    -0.25200
C4692       C  0.06664182  0.71527072  0.30703220     0.27400
H4693       H  0.08416643  0.69250094  0.30821975     0.13200
N4694       N  0.06589168  0.67951593  0.31088390    -0.82500
H4695       H  0.04848733  0.71434860  0.30841179     0.18000
N4696       N  0.06688406  0.72734817  0.30581471    -0.81100
H4697       H  0.07408370  0.67624873  0.31072932     0.33700
H4698       H  0.06175828  0.67628884  0.30379522     0.38200
H4699       H  0.05869921  0.73063489  0.30588240     0.33600
H4700       H  0.07098861  0.73064483  0.31288788     0.30300
H4701       H  0.10301663  0.70595658  0.32754072     0.33600
H4702       H  0.08977579  0.71092187  0.32804782     0.30300
H4703       H  0.09903988  0.72803507  0.27614787     0.38200
H4704       H  0.09570079  0.73958862  0.28385061     0.33700
C4705       C  0.20681598  0.71628279  0.39077954    -0.20100
C4706       C  0.19661424  0.71791000  0.39679920     0.36200
C4707       C  0.19566017  0.71381602  0.40795978    -0.26000
C4708       C  0.20456450  0.70796196  0.41309043     0.02600
C4709       C  0.21465955  0.70619844  0.40708593     0.27400
C4710       C  0.21570968  0.71042508  0.39603906    -0.25200
N4711       N  0.18740517  0.72396911  0.39175404    -0.82500
H4712       H  0.18788507  0.71503743  0.41264065     0.13200
C4713       C  0.20300582  0.70312987  0.42453697     0.02600
N4714       N  0.22376959  0.70006245  0.41223428    -0.81100
H4715       H  0.22354139  0.70909897  0.39148398     0.18000
C4716       C  0.20072564  0.69158883  0.42556995    -0.26000
C4717       C  0.19909226  0.68656287  0.43621261     0.36100
C4718       C  0.19953706  0.69331392  0.44607021    -0.20000
C4719       C  0.20215233  0.70485728  0.44499757    -0.25200
C4720       C  0.20392670  0.70982580  0.43430638     0.27400
H4721       H  0.20025781  0.68647700  0.41800086     0.13200
N4722       N  0.19718579  0.67459961  0.43700940    -0.82500
H4723       H  0.20258557  0.71007008  0.45248970     0.18000
N4724       N  0.20657373  0.72163209  0.43330125    -0.81100
H4725       H  0.19701098  0.67092935  0.42898415     0.33700
H4726       H  0.20407323  0.67107918  0.44124489     0.38200
H4727       H  0.20688262  0.72538775  0.44128160     0.33600
H4728       H  0.21469144  0.72228594  0.42987231     0.30300
H4729       H  0.23058613  0.69938761  0.40664661     0.33600
H4730       H  0.22660528  0.70477548  0.41912614     0.30300
H4731       H  0.18406208  0.71886290  0.38539643     0.38200
H4732       H  0.18089691  0.72512034  0.39762356     0.33700
C4733       C  0.23337353  0.73326210  0.36413111    -0.20100
C4734       C  0.24276187  0.72678580  0.36754703     0.36200
C4735       C  0.25358728  0.73160754  0.36725496    -0.26000
C4736       C  0.25521675  0.74279979  0.36370686     0.02600
C4737       C  0.24592149  0.74907457  0.35967852     0.27400
C4738       C  0.23507447  0.74417616  0.35980552    -0.25200
N4739       N  0.24120538  0.71540572  0.37153227    -0.82500
H4740       H  0.26076496  0.72675321  0.37016796     0.13200
C4741       C  0.26650465  0.74808891  0.36519397     0.02600
N4742       N  0.24746032  0.76054010  0.35596086    -0.81100
H4743       H  0.22784898  0.74913238  0.35720267     0.18000
C4744       C  0.27242987  0.75230945  0.35581140    -0.26000
C4745       C  0.28299103  0.75753169  0.35704528     0.36100
C4746       C  0.28779118  0.75870364  0.36797015    -0.20000
C4747       C  0.28180690  0.75438196  0.37731720    -0.25200
C4748       C  0.27126885  0.74909870  0.37605500     0.27400
H4749       H  0.26880552  0.75153959  0.34744836     0.13200
N4750       N  0.28840402  0.76181589  0.34707866    -0.82500
H4751       H  0.28536119  0.75513346  0.38570852     0.18000
N4752       N  0.26530198  0.74487085  0.38579299    -0.81100
H4753       H  0.29598907  0.75749761  0.34586179     0.33700
H4754       H  0.29006118  0.77041147  0.34819640     0.38200
H4755       H  0.26997999  0.74619440  0.39315128     0.33600
H4756       H  0.25788889  0.74957497  0.38664254     0.30300
H4757       H  0.23979526  0.76397613  0.35327840     0.33600
H4758       H  0.25003540  0.76527744  0.36293932     0.30300
H4759       H  0.23808165  0.71064874  0.36479716     0.38200
H4760       H  0.24893654  0.71181507  0.37378900     0.33700
C4761       C  0.19377524  0.72683373  0.35228931    -0.20100
C4762       C  0.19613981  0.72595846  0.34058622     0.36200
C4763       C  0.18730284  0.72696008  0.33271046    -0.26000
C4764       C  0.17611125  0.72868099  0.33621301     0.02600
C4765       C  0.17370722  0.72937870  0.34788907     0.27400
C4766       C  0.18252878  0.72835895  0.35578219    -0.25200
N4767       N  0.20744165  0.72378258  0.33672043    -0.82500
H4768       H  0.18911630  0.72617972  0.32376507     0.13200
C4769       C  0.16697561  0.72937175  0.32756423     0.02600
N4770       N  0.16233211  0.73128332  0.35167892    -0.81100
H4771       H  0.18063006  0.72901657  0.36471837     0.18000
C4772       C  0.15792501  0.72174272  0.32809085    -0.26000
C4773       C  0.14925819  0.72194622  0.32001658     0.36100
C4774       C  0.14957497  0.72988994  0.31107142    -0.20000
C4775       C  0.15871658  0.73747358  0.31049384    -0.25200
C4776       C  0.16733483  0.73737722  0.31869426     0.27400
H4777       H  0.15764053  0.71546574  0.33476940     0.13200
N4778       N  0.14029215  0.71386302  0.32083687    -0.82500
H4779       H  0.15902628  0.74368284  0.30375926     0.18000
N4780       N  0.17636444  0.74548005  0.31814680    -0.81100
H4781       H  0.13632526  0.71489673  0.32867086     0.33700
H4782       H  0.14382231  0.70578035  0.32062568     0.38200
H4783       H  0.17541342  0.75077198  0.31112615     0.33600
H4784       H  0.17574484  0.75061431  0.32529580     0.30300
H4785       H  0.16196463  0.73152709  0.36050572     0.33600
H4786       H  0.15989178  0.73926777  0.34880159     0.30300
H4787       H  0.20971459  0.71575433  0.33961806     0.38200
H4788       H  0.20774746  0.72347238  0.32789346     0.33700
C4789       C  0.20286316  0.77837981  0.09604738    -0.20100
C4790       C  0.19628757  0.78817626  0.09438700     0.36200
C4791       C  0.19433542  0.79210626  0.08332477    -0.26000
C4792       C  0.19885245  0.78648854  0.07390200     0.02600
C4793       C  0.20538493  0.77668363  0.07556316     0.27400
C4794       C  0.20740908  0.77279996  0.08661328    -0.25200
N4795       N  0.19189553  0.79427622  0.10391855    -0.82500
H4796       H  0.18942270  0.79970933  0.08203150     0.13200
C4797       C  0.19673665  0.79104468  0.06236240     0.02600
N4798       N  0.20983685  0.77065558  0.06601354    -0.81100
H4799       H  0.21244398  0.76527042  0.08786905     0.18000
C4800       C  0.20588240  0.79425748  0.05548495    -0.26000
C4801       C  0.20416852  0.79901244  0.04469196     0.36100
C4802       C  0.19304952  0.80047835  0.04065377    -0.20000
C4803       C  0.18393547  0.79716735  0.04754914    -0.25200
C4804       C  0.18565594  0.79242042  0.05830064     0.27400
H4805       H  0.21438896  0.79328886  0.05867756     0.13200
N4806       N  0.21365447  0.80265677  0.03801851    -0.82500
H4807       H  0.17539034  0.79815640  0.04448108     0.18000
N4808       N  0.17619428  0.78890990  0.06509304    -0.81100
H4809       H  0.22122380  0.80090704  0.04218888     0.33700
H4810       H  0.21317464  0.81143915  0.03724355     0.38200
H4811       H  0.16860448  0.79055626  0.06091921     0.33600
H4812       H  0.17669520  0.78014894  0.06607596     0.30300
H4813       H  0.21448268  0.76364083  0.06867737     0.33600
H4814       H  0.20299082  0.76754013  0.06141486     0.30300
H4815       H  0.19877133  0.79744113  0.10843983     0.38200
H4816       H  0.18722926  0.80126869  0.10123125     0.33700
C4817       C  0.11006939  0.78299129  0.19117125    -0.20100
C4818       C  0.10243842  0.78534284  0.20017099     0.36200
C4819       C  0.09166289  0.78967260  0.19778002    -0.26000
C4820       C  0.08834142  0.79209467  0.18670727     0.02600
C4821       C  0.09600629  0.79027262  0.17775888     0.27400
C4822       C  0.10675682  0.78570286  0.18006211    -0.25200
N4823       N  0.10562119  0.78348720  0.21175083    -0.82500
H4824       H  0.08582124  0.79133861  0.20463999     0.13200
C4825       C  0.07681942  0.79668450  0.18473137     0.02600
N4826       N  0.09278211  0.79295205  0.16636186    -0.81100
H4827       H  0.11248214  0.78408249  0.17310387     0.18000
C4828       C  0.07558463  0.80780358  0.18087600    -0.26000
C4829       C  0.06483060  0.81261810  0.17939720     0.36100
C4830       C  0.05504066  0.80608245  0.18163545    -0.20000
C4831       C  0.05631910  0.79497797  0.18563002    -0.25200
C4832       C  0.06710238  0.79020398  0.18715509     0.27400
H4833       H  0.08307137  0.81281785  0.17923668     0.13200
N4834       N  0.06385530  0.82421201  0.17591051    -0.82500
H4835       H  0.04887966  0.78992098  0.18733125     0.18000
N4836       N  0.06825037  0.77876294  0.19106636    -0.81100
H4837       H  0.07182278  0.82779270  0.17459422     0.33700
H4838       H  0.06013595  0.82866140  0.18256731     0.38200
H4839       H  0.06032062  0.77513422  0.19247365     0.33600
H4840       H  0.07205887  0.77412753  0.18458950     0.30300
H4841       H  0.09937086  0.79117257  0.16074988     0.33600
H4842       H  0.08608397  0.78763690  0.16419135     0.30300
H4843       H  0.11206782  0.78921132  0.21363493     0.38200
H4844       H  0.09894337  0.78534313  0.21723195     0.33700
C4845       C  0.13518778  0.76213045  0.21668090    -0.20100
C4846       C  0.12713295  0.75455029  0.22110078     0.36200
C4847       C  0.12833377  0.75050423  0.23218222    -0.26000
C4848       C  0.13739019  0.75390493  0.23899213     0.02600
C4849       C  0.14570440  0.76125941  0.23442513     0.27400
C4850       C  0.14456038  0.76514707  0.22324139    -0.25200
N4851       N  0.11772843  0.75103724  0.21430285    -0.82500
H4852       H  0.12203427  0.74481192  0.23564523     0.13200
C4853       C  0.13734637  0.75011285  0.25096928     0.02600
N4854       N  0.15515651  0.76523658  0.24090231    -0.81100
H4855       H  0.15075922  0.77098346  0.21983900     0.18000
C4856       C  0.14528765  0.74217415  0.25476454    -0.26000
C4857       C  0.14463001  0.73767629  0.26577759     0.36100
C4858       C  0.13586164  0.74110254  0.27306376    -0.20000
C4859       C  0.12801834  0.74911931  0.26927130    -0.25200
C4860       C  0.12872632  0.75373096  0.25835279     0.27400
H4861       H  0.15182427  0.73925013  0.24906065     0.13200
N4862       N  0.15251916  0.72924483  0.26932462    -0.82500
H4863       H  0.12124837  0.75174162  0.27485322     0.18000
N4864       N  0.12059986  0.76193167  0.25462167    -0.81100
H4865       H  0.15197547  0.72245349  0.26372410     0.33700
H4866       H  0.16063099  0.73266636  0.26865414     0.38200
H4867       H  0.11472984  0.76360323  0.26101457     0.33600
H4868       H  0.12492766  0.76948202  0.25308462     0.30300
H4869       H  0.15439916  0.77400019  0.24161746     0.33600
H4870       H  0.15506137  0.76205472  0.24912711     0.30300
H4871       H  0.12095207  0.74651933  0.20743664     0.38200
H4872       H  0.11253917  0.74546682  0.21881214     0.33700
C4873       C  0.14833982  0.77111727  0.17806433    -0.20100
C4874       C  0.15642543  0.76227585  0.17780630     0.36200
C4875       C  0.16472766  0.76215045  0.16928443    -0.26000
C4876       C  0.16527235  0.77066090  0.16106630     0.02600
C4877       C  0.15706430  0.77926682  0.16104743     0.27400
C4878       C  0.14866858  0.77938760  0.16950486    -0.25200
N4879       N  0.15605276  0.75325627  0.18595817    -0.82500
H4880       H  0.17092232  0.75542741  0.16910537     0.13200
C4881       C  0.17437006  0.77030218  0.15237912     0.02600
N4882       N  0.15733226  0.78787161  0.15245752    -0.81100
H4883       H  0.14248072  0.78611245  0.16952475     0.18000
C4884       C  0.17136505  0.76807016  0.14115031    -0.26000
C4885       C  0.17954500  0.76752398  0.13252811     0.36100
C4886       C  0.19103659  0.76938694  0.13515385    -0.20000
C4887       C  0.19406952  0.77135293  0.14644612    -0.25200
C4888       C  0.18591666  0.77195572  0.15507007     0.27400
H4889       H  0.16256411  0.76663384  0.13913291     0.13200
N4890       N  0.17622700  0.76486331  0.12116264    -0.82500
H4891       H  0.20284692  0.77278009  0.14856629     0.18000
N4892       N  0.18969997  0.77445237  0.16633988    -0.81100
H4893       H  0.16748535  0.76377282  0.12066058     0.33700
H4894       H  0.17985026  0.75709075  0.11909278     0.38200
H4895       H  0.19354857  0.78239905  0.16612651     0.33600
H4896       H  0.18299904  0.77513782  0.17202217     0.30300
H4897       H  0.15066412  0.79353919  0.15355748     0.33600
H4898       H  0.16477955  0.79249037  0.15349990     0.30300
H4899       H  0.15943625  0.75637088  0.19348025     0.38200
H4900       H  0.16135980  0.74665325  0.18349459     0.33700
C4901       C  0.32475214  0.70132895  0.04106820    -0.20100
C4902       C  0.32280515  0.71298212  0.04272405     0.36200
C4903       C  0.32047925  0.71700986  0.05369940    -0.26000
C4904       C  0.32001874  0.70961975  0.06298823     0.02600
C4905       C  0.32187219  0.69800230  0.06132578     0.27400
C4906       C  0.32426703  0.69399613  0.05042304    -0.25200
N4907       N  0.32338806  0.72069499  0.03334261    -0.82500
H4908       H  0.31901940  0.72593622  0.05503965     0.13200
C4909       C  0.31751376  0.71404290  0.07446064     0.02600
N4910       N  0.32129583  0.69032031  0.07074400    -0.81100
H4911       H  0.32563623  0.68504007  0.04921510     0.18000
C4912       C  0.30717860  0.71134000  0.07956649    -0.26000
C4913       C  0.30464612  0.71487725  0.09062161     0.36100
C4914       C  0.31265036  0.72131445  0.09673026    -0.20000
C4915       C  0.32303780  0.72395853  0.09159467    -0.25200
C4916       C  0.32553165  0.72040912  0.08050175     0.27400
H4917       H  0.30110415  0.70634244  0.07491316     0.13200
N4918       N  0.29405258  0.71176693  0.09571743    -0.82500
H4919       H  0.32917033  0.72892513  0.09619877     0.18000
N4920       N  0.33618335  0.72318265  0.07535365    -0.81100
H4921       H  0.28911111  0.70714134  0.09006819     0.33700
H4922       H  0.29580120  0.70639270  0.10251496     0.38200
H4923       H  0.34111529  0.72797264  0.08087147     0.33600
H4924       H  0.34052929  0.71562755  0.07399521     0.30300
H4925       H  0.32274915  0.68203372  0.06809230     0.33600
H4926       H  0.32784568  0.69238177  0.07627162     0.30300
H4927       H  0.33170376  0.72069850  0.03036555     0.38200
H4928       H  0.32166075  0.72893037  0.03599044     0.33700
C4929       C  0.28485793  0.73645943  0.12353957    -0.20100
C4930       C  0.28175591  0.74352234  0.13270719     0.36200
C4931       C  0.27072791  0.74802349  0.13320638    -0.26000
C4932       C  0.26271330  0.74547498  0.12490127     0.02600
C4933       C  0.26553143  0.73794475  0.11618261     0.27400
C4934       C  0.27650474  0.73353331  0.11558769    -0.25200
N4935       N  0.28982336  0.74644281  0.14125950    -0.82500
H4936       H  0.26844282  0.75377487  0.13993801     0.13200
C4937       C  0.25166249  0.75135849  0.12476511     0.02600
N4938       N  0.25727948  0.73505754  0.10777657    -0.81100
H4939       H  0.27857112  0.72793672  0.10866515     0.18000
C4940       C  0.25002403  0.75999607  0.11685136    -0.26000
C4941       C  0.23946600  0.76514693  0.11555870     0.36100
C4942       C  0.23019440  0.76155206  0.12223497    -0.20000
C4943       C  0.23199167  0.75320061  0.13053284    -0.25200
C4944       C  0.24263640  0.74800708  0.13179980     0.27400
H4945       H  0.25698150  0.76264642  0.11149277     0.13200
N4946       N  0.23825915  0.77407806  0.10745787    -0.82500
H4947       H  0.22498977  0.75040022  0.13574057     0.18000
N4948       N  0.24425967  0.73918512  0.13999490    -0.81100
H4949       H  0.24395870  0.78048991  0.10952010     0.33700
H4950       H  0.24046650  0.77093629  0.09950344     0.38200
H4951       H  0.23680774  0.73772948  0.14452507     0.33600
H4952       H  0.24602624  0.73174768  0.13559502     0.30300
H4953       H  0.26070005  0.72950945  0.10182739     0.33600
H4954       H  0.25074923  0.73070072  0.11185421     0.30300
H4955       H  0.29151369  0.73911083  0.14589330     0.38200
H4956       H  0.28634447  0.75218543  0.14698569     0.33700
C4957       C  0.40730930  0.72456072  0.19012308    -0.20100
C4958       C  0.41233125  0.71622727  0.19701105     0.36200
C4959       C  0.42339379  0.71254615  0.19463350    -0.26000
C4960       C  0.42967197  0.71716069  0.18562871     0.02600
C4961       C  0.42463419  0.72558926  0.17879982     0.27400
C4962       C  0.41346082  0.72905076  0.18101302    -0.25200
N4963       N  0.40610976  0.71142389  0.20630342    -0.82500
H4964       H  0.42709687  0.70593400  0.19976122     0.13200
C4965       C  0.44130857  0.71279275  0.18321462     0.02600
N4966       N  0.43094988  0.73074846  0.16976418    -0.81100
H4967       H  0.40964417  0.73554836  0.17581788     0.18000
C4968       C  0.44397382  0.70908403  0.17227323    -0.26000
C4969       C  0.45465605  0.70461246  0.16964644     0.36100
C4970       C  0.46279973  0.70325363  0.17828795    -0.20000
C4971       C  0.46026621  0.70725231  0.18917586    -0.25200
C4972       C  0.44966870  0.71208462  0.19170459     0.27400
H4973       H  0.43763425  0.70961547  0.16571557     0.13200
N4974       N  0.45727601  0.70160771  0.15817191    -0.82500
H4975       H  0.46648442  0.70639517  0.19581282     0.18000
N4976       N  0.44736232  0.71625753  0.20286916    -0.81100
H4977       H  0.45038340  0.70310074  0.15287836     0.33700
H4978       H  0.46375629  0.70695046  0.15540691     0.38200
H4979       H  0.45434245  0.71508590  0.20812728     0.33600
H4980       H  0.44610996  0.72497169  0.20222218     0.30300
H4981       H  0.42605817  0.73677860  0.16556808     0.33600
H4982       H  0.43772926  0.73507704  0.17337697     0.30300
H4983       H  0.39919140  0.70710849  0.20294499     0.38200
H4984       H  0.41099063  0.70542393  0.21055623     0.33700
C4985       C  0.38085494  0.76573132  0.27282748    -0.20100
C4986       C  0.37463353  0.75580753  0.27064909     0.36200
C4987       C  0.37392329  0.75161945  0.25954814    -0.26000
C4988       C  0.37925534  0.75720340  0.25051134     0.02600
C4989       C  0.38508709  0.76736893  0.25255899     0.27400
C4990       C  0.38584000  0.77151211  0.26367413    -0.25200
N4991       N  0.36948110  0.74964607  0.27972391    -0.82500
H4992       H  0.36946031  0.74378219  0.25801878     0.13200
C4993       C  0.37960667  0.75182287  0.23915933     0.02600
N4994       N  0.39047599  0.77327665  0.24337986    -0.81100
H4995       H  0.39055243  0.77919564  0.26522991     0.18000
C4996       C  0.37356361  0.75652616  0.23012910    -0.26000
C4997       C  0.37422645  0.75189256  0.21916037     0.36100
C4998       C  0.38129936  0.74245831  0.21713242    -0.20000
C4999       C  0.38724474  0.73775642  0.22629220    -0.25200
C5000       C  0.38646904  0.74231963  0.23723317     0.27400
H5001       H  0.36834180  0.76387271  0.23165603     0.13200
N5002       N  0.36803366  0.75699490  0.21007524    -0.82500
H5003       H  0.39265572  0.73052412  0.22489074     0.18000
N5004       N  0.39281013  0.73747815  0.24638444    -0.81100
H5005       H  0.36414171  0.76443703  0.21277292     0.33700
H5006       H  0.36148429  0.75145119  0.20805279     0.38200
H5007       H  0.39741387  0.73048562  0.24360791     0.33600
H5008       H  0.39870969  0.74349313  0.24900111     0.30300
H5009       H  0.39435212  0.78065136  0.24627902     0.33600
H5010       H  0.39691646  0.76811161  0.24026635     0.30300
H5011       H  0.36084513  0.74900623  0.27805623     0.38200
H5012       H  0.37285430  0.74149370  0.27979858     0.33700
C5013       C  0.36817280  0.73314236  0.17815433    -0.20100
C5014       C  0.35931473  0.74115105  0.17774344     0.36200
C5015       C  0.35078823  0.74014562  0.16949464    -0.26000
C5016       C  0.35083196  0.73134951  0.16155709     0.02600
C5017       C  0.35972859  0.72335065  0.16190761     0.27400
C5018       C  0.36827729  0.72443637  0.17007645    -0.25200
N5019       N  0.35910013  0.75043896  0.18551677    -0.82500
H5020       H  0.34407122  0.74633892  0.16917489     0.13200
C5021       C  0.34166247  0.73095040  0.15287213     0.02600
N5022       N  0.36034116  0.71394511  0.15425835    -0.81100
H5023       H  0.37495296  0.71819386  0.17024989     0.18000
C5024       C  0.34439880  0.73338184  0.14156084    -0.26000
C5025       C  0.33615565  0.73319322  0.13301344     0.36100
C5026       C  0.32479804  0.73072621  0.13572911    -0.20000
C5027       C  0.32201005  0.72852112  0.14708835    -0.25200
C5028       C  0.33026734  0.72840020  0.15563633     0.27400
H5029       H  0.35304442  0.73542496  0.13933813     0.13200
N5030       N  0.33934959  0.73577795  0.12161179    -0.82500
H5031       H  0.31335783  0.72653225  0.14933054     0.18000
N5032       N  0.32675288  0.72547150  0.16692149    -0.81100
H5033       H  0.34553115  0.73000087  0.11911466     0.33700
H5034       H  0.34294760  0.74384185  0.12148809     0.38200
H5035       H  0.32354294  0.71724837  0.16668235     0.33600
H5036       H  0.33353260  0.72524912  0.17251524     0.30300
H5037       H  0.35990487  0.70655864  0.15910202     0.33600
H5038       H  0.35344679  0.71367876  0.14881071     0.30300
H5039       H  0.36613773  0.75549958  0.18379797     0.38200
H5040       H  0.35199185  0.75548488  0.18418034     0.33700
loop_ 
_geom_bond_atom_site_label_1 
_geom_bond_atom_site_label_2 
_geom_bond_distance 
_geom_bond_site_symmetry_2 
_ccdc_geom_bond_type 
C1            N2   1.365       .  A
C1            N6   1.366       .  A
C1         C5013   1.501       .  S
N2            C3   1.361       .  A
C3            N4   1.358       .  A
C3         C4957   1.485       .  S
N4            C5   1.360       .  A
C5            N6   1.364       .  A
C5         C4998   1.497       .  S
C7            N8   1.366       .  A
C7           N12   1.365       .  A
C7         C5026   1.497       .  S
N8            C9   1.364       .  A
C9           N10   1.358       .  A
C9         C4929   1.500       .  S
N10          C11   1.355       .  A
C11          N12   1.361       .  A
C11        C4914   1.489       .  S
C13          N14   1.368       .  A
C13          N18   1.361       .  A
C13        C4873   1.494       .  S
N14          C15   1.366       .  A
C15          N16   1.356       .  A
C15        C4817   1.501       .  S
N16          C17   1.353       .  A
C17          N18   1.354       .  A
C17        C4845   1.476       .  S
C19          N20   1.362       .  A
C19          N24   1.365       .  A
C19        C4886   1.489       .  S
N20          C21   1.358       .  A
C21          N22   1.355       .  A
C21        C4789   1.483       .  S
N22          C23   1.358       .  A
C23          N24   1.363       .  A
C23        C4942   1.492       .  S
C25          N26   1.364       .  A
C25          N30   1.365       .  A
C25        C4761   1.492       .  S
N26          C27   1.359       .  A
C27          N28   1.354       .  A
C27        C4733   1.478       .  S
N28          C29   1.354       .  A
C29          N30   1.361       .  A
C29        C4705   1.487       .  S
C31          N32   1.363       .  A
C31          N36   1.365       .  A
C31        C4774   1.494       .  S
N32          C33   1.361       .  A
C33          N34   1.355       .  A
C33        C4677   1.497       .  S
N34          C35   1.355       .  A
C35          N36   1.361       .  A
C35        C4858   1.479       .  S
C37          N38   1.361       .  A
C37          N42   1.362       .  A
C37        C4649   1.489       .  S
N38          C39   1.359       .  A
C39          N40   1.360       .  A
C39        C4746   1.492       .  S
N40          C41   1.360       .  A
C41          N42   1.361       .  A
C41        C4621   1.498       .  S
C43          N44   1.365       .  A
C43          N48   1.361       .  A
C43        C4662   1.493       .  S
N44          C45   1.362       .  A
C45          N46   1.357       .  A
C45        C4985   1.490       .  S
N46          C47   1.359       .  A
C47          N48   1.359       .  A
C47        C4593   1.498       .  S
C49          N50   1.360       .  A
C49          N54   1.359       .  A
C49        C4565   1.477       .  S
N50          C51   1.358       .  A
C51          N52   1.354       .  A
C51        C4550   1.473       .  S
N52          C53   1.353       .  A
C53          N54   1.358       .  A
C53        C4509   1.478       .  S
N55          C59   1.351       .  A
N55          N56   1.324       .  A
N55         Cu63   2.107       .  S
N56          C57   1.344       .  A
N56         Cu62   2.076       .  S
C57          C58   1.383       .  A
C57          H60   1.082       .  S
C58        C4634   1.488       .  S
C58          C59   1.390       .  A
C59          H61   1.082       .  S
Cu62         N65   2.074       .  S
Cu63         N73   2.106       .  S
Cu64         N66   2.061       .  S
Cu64         N72   2.061       .  S
N65          C69   1.344       .  A
N65          N66   1.318       .  A
N66          C67   1.343       .  A
C67          C68   1.388       .  A
C67          H70   1.081       .  S
C68        C4578   1.493       .  S
C68          C69   1.392       .  A
C69          H71   1.080       .  S
N72          C76   1.342       .  A
N72          N73   1.323       .  A
N73          C74   1.352       .  A
C74          C75   1.391       .  A
C74          H77   1.082       .  S
C75        C4481   1.486       .  S
C75          C76   1.381       .  A
C76          H78   1.082       .  S
C79          N80   1.360       .  A
C79          N84   1.358       .  A
C79        C4453   1.480       .  S
N80          C81   1.360       .  A
C81          N82   1.358       .  A
C81        C4425   1.482       .  S
N82          C83   1.358       .  A
C83          N84   1.357       .  A
C83        C4537   1.473       .  S
N85          C89   1.351       .  A
N85          N86   1.322       .  A
N85         Cu93   2.101       .  S
N86          C87   1.340       .  A
N86         Cu92   2.054       .  S
C87          C88   1.379       .  A
C87          H90   1.082       .  S
C88        C4606   1.484       .  S
C88          C89   1.392       .  A
C89          H91   1.082       .  S
Cu92         N95   2.054       .  S
Cu93        N103   2.102       .  S
Cu94         N96   2.074       .  S
Cu94        N102   2.075       .  S
N95          C99   1.342       .  A
N95          N96   1.319       .  A
N96          C97   1.346       .  A
C97          C98   1.388       .  A
C97         H100   1.082       .  S
C98        C4466   1.481       .  S
C98          C99   1.383       .  A
C99         H101   1.082       .  S
N102        C106   1.343       .  A
N102        N103   1.325       .  A
N103        C104   1.351       .  A
C104        C105   1.389       .  A
C104        H107   1.082       .  S
C105       C4397   1.486       .  S
C105        C106   1.382       .  A
C106        H108   1.082       .  S
N109        C113   1.349       .  A
N109        N110   1.323       .  A
N109       Cu117   2.090       .  S
N110        C111   1.344       .  A
N110       Cu116   2.078       .  S
C111        C112   1.385       .  A
C111        H114   1.082       .  S
C112       C4326   1.489       .  S
C112        C113   1.389       .  A
C113        H115   1.082       .  S
Cu116       N119   2.078       .  S
Cu117       N127   2.089   1_545  S
Cu118       N120   2.066       .  S
Cu118       N126   2.067       .  S
N119        C123   1.345       .  A
N119        N120   1.320   1_545  A
N120        C121   1.344       .  A
C121        C122   1.387   1_565  A
C121        H124   1.082       .  S
C122       C4369   1.489       .  S
C122        C123   1.390       .  A
C123        H125   1.081       .  S
N126        C130   1.343       .  A
N126        N127   1.323       .  A
N127        C128   1.348       .  A
C128        C129   1.388       .  A
C128        H131   1.082       .  S
C129       C4354   1.482       .  S
C129        C130   1.381       .  A
C130        H132   1.082       .  S
C133        N134   1.360   1_565  A
C133        N138   1.358       .  A
C133       C4382   1.495       .  S
N134        C135   1.360       .  A
C135        N136   1.361   1_545  A
C135       C4285   1.493       .  S
N136        C137   1.360       .  A
C137        N138   1.358       .  A
C137       C4438   1.483       .  S
N139        C143   1.353       .  A
N139        N140   1.325       .  A
N139       Cu147   2.112   1_545  S
N140        C141   1.344       .  A
N140       Cu146   2.079       .  S
C141        C142   1.383       .  A
C141        H144   1.082       .  S
C142       C4201   1.492       .  S
C142        C143   1.392       .  A
C143        H145   1.082       .  S
Cu146       N149   2.078       .  S
Cu147       N157   2.111       .  S
Cu148       N150   2.067       .  S
Cu148       N156   2.068       .  S
N149        C153   1.347       .  A
N149        N150   1.320   1_545  A
N150        C151   1.344       .  A
C151        C152   1.383   1_565  A
C151        H154   1.082       .  S
C152       C4270   1.481       .  S
C152        C153   1.387       .  A
C153        H155   1.082       .  S
N156        C160   1.343       .  A
N156        N157   1.323       .  A
N157        C158   1.352       .  A
C158        C159   1.394       .  A
C158        H161   1.082       .  S
C159       C4229   1.493       .  S
C159        C160   1.383       .  A
C160        H162   1.081       .  S
C163        N164   1.357   1_545  A
C163        N168   1.359       .  A
C163       C4257   1.482       .  S
N164        C165   1.357       .  A
C165        N166   1.357   1_565  A
C165       C4522   1.477       .  S
N166        C167   1.358       .  A
C167        N168   1.360       .  A
C167       C4186   1.484       .  S
N169        C173   1.350       .  A
N169        N170   1.322       .  A
N169       Cu177   2.103       .  S
N170        C171   1.343       .  A
N170       Cu176   2.068       .  S
C171        C172   1.384       .  A
C171        H174   1.082       .  S
C172       C4089   1.492       .  S
C172        C173   1.393       .  A
C173        H175   1.081       .  S
Cu176       N179   2.067       .  S
Cu177       N187   2.103       .  S
Cu178       N180   2.074       .  S
Cu178       N186   2.075       .  S
N179        C183   1.343       .  A
N179        N180   1.320       .  A
N180        C181   1.346       .  A
C181        C182   1.387       .  A
C181        H184   1.082       .  S
C182       C4145   1.482       .  S
C182        C183   1.384       .  A
C183        H185   1.082       .  S
N186        C190   1.344       .  A
N186        N187   1.324       .  A
N187        C188   1.351       .  A
C188        C189   1.390       .  A
C188        H191   1.082       .  S
C189       C4117   1.488       .  S
C189        C190   1.383       .  A
C190        H192   1.082       .  S
C193        N194   1.361       .  A
C193        N198   1.358       .  A
C193       C4158   1.493       .  S
N194        C195   1.359       .  A
C195        N196   1.358       .  A
C195       C4074   1.482       .  S
N196        C197   1.358       .  A
C197        N198   1.357       .  A
C197       C4173   1.483       .  S
C199        N200   1.359       .  A
C199        N204   1.360       .  A
C199       C4046   1.491       .  S
N200        C201   1.358       .  A
C201        N202   1.358       .  A
C201       C4061   1.479       .  S
N202        C203   1.359       .  A
C203        N204   1.359       .  A
C203       C4298   1.488       .  S
N205        C209   1.349       .  A
N205        N206   1.322       .  A
N205       Cu213   2.092       .  S
N206        C207   1.342       .  A
N206       Cu212   2.065       .  S
C207        C208   1.382       .  A
C207        H210   1.082       .  S
C208       C4005   1.486       .  S
C208        C209   1.390       .  A
C209        H211   1.081       .  S
Cu212       N215   2.064       .  S
Cu213       N223   2.092       .  S
Cu214       N216   2.072       .  S
Cu214       N222   2.073       .  S
N215        C219   1.343       .  A
N215        N216   1.320       .  A
N216        C217   1.345       .  A
C217        C218   1.386       .  A
C217        H220   1.082       .  S
C218       C4033   1.480       .  S
C218        C219   1.384       .  A
C219        H221   1.082       .  S
N222        C226   1.343       .  A
N222        N223   1.323       .  A
N223        C224   1.349       .  A
C224        C225   1.389       .  A
C224        H227   1.082       .  S
C225       C3977   1.489       .  S
C225        C226   1.385       .  A
C226        H228   1.081       .  S
C229        N230   1.361       .  A
C229        N234   1.365       .  A
C229       C3962   1.488       .  S
N230        C231   1.357       .  A
C231        N232   1.356       .  A
C231       C3921   1.476       .  S
N232        C233   1.357       .  A
C233        N234   1.363       .  A
C233       C3893   1.485       .  S
C235        N236   1.361       .  A
C235        N240   1.361       .  A
C235       C3949   1.492       .  S
N236        C237   1.361       .  A
C237        N238   1.361       .  A
C237       C3837   1.500       .  S
N238        C239   1.361       .  A
C239        N240   1.361       .  A
C239       C3865   1.493       .  S
C241        N242   1.362       .  A
C241        N246   1.364       .  A
C241       C3809   1.490       .  S
N242        C243   1.359       .  A
C243        N244   1.355       .  A
C243       C3781   1.485       .  S
N244        C245   1.357       .  A
C245        N246   1.362       .  A
C245       C3753   1.500       .  S
C247        N248   1.363       .  A
C247        N252   1.362       .  A
C247       C3822   1.493       .  S
N248        C249   1.360       .  A
C249        N250   1.358       .  A
C249       C3934   1.493       .  S
N250        C251   1.356       .  A
C251        N252   1.359       .  A
C251       C3738   1.484       .  S
C253        N254   1.364       .  A
C253        N258   1.363       .  A
C253       C3710   1.491       .  S
N254        C255   1.363       .  A
C255        N256   1.358       .  A
C255       C3669   1.497       .  S
N256        C257   1.355       .  A
C257        N258   1.359       .  A
C257       C4102   1.482       .  S
C259        N260   1.362       .  A
C259        N264   1.366       .  A
C259       C3697   1.492       .  S
N260        C261   1.358       .  A
C261        N262   1.357       .  A
C261       C3878   1.486       .  S
N262        C263   1.357       .  A
C263        N264   1.365       .  A
C263       C4214   1.502       .  S
C265        N266   1.365       .  A
C265        N270   1.363       .  A
C265       C3641   1.494       .  S
N266        C267   1.363       .  A
C267        N268   1.357       .  A
C267       C3613   1.492       .  S
N268        C269   1.359       .  A
C269        N270   1.361       .  A
C269       C3682   1.491       .  S
C271        N272   1.366       .  A
C271        N276   1.362       .  A
C271       C3654   1.493       .  S
N272        C273   1.367       .  A
C273        N274   1.357       .  A
C273       C3585   1.503       .  S
N274        C275   1.355       .  A
C275        N276   1.359       .  A
C275       C3794   1.484       .  S
N277        C281   1.349       .  A
N277        N278   1.324       .  A
N277       Cu285   2.094       .  S
N278        C279   1.343       .  A
N278       Cu284   2.076       .  S
C279        C280   1.382       .  A
C279        H282   1.082       .  S
C280       C3529   1.484       .  S
C280        C281   1.388       .  A
C281        H283   1.082       .  S
Cu284       N287   2.075       .  S
Cu285       N295   2.093   1_556  S
Cu286       N288   2.069       .  S
Cu286       N294   2.070       .  S
N287        C291   1.347       .  A
N287        N288   1.320   1_556  A
N288        C289   1.344       .  A
C289        C290   1.386   1_554  A
C289        H292   1.082       .  S
C290       C3557   1.485       .  S
C290        C291   1.388       .  A
C291        H293   1.082       .  S
N294        C298   1.342       .  A
N294        N295   1.322       .  A
N295        C296   1.351       .  A
C296        C297   1.391       .  A
C296        H299   1.082       .  S
C297       C4901   1.488       .  S
C297        C298   1.383       .  A
C298        H300   1.082       .  S
C301        N302   1.361   1_556  A
C301        N306   1.360       .  A
C301       C3570   1.478       .  S
N302        C303   1.361       .  A
C303        N304   1.356   1_554  A
C303       C3501   1.490       .  S
N304        C305   1.356       .  A
C305        N306   1.360       .  A
C305       C3473   1.484       .  S
C307        N308   1.358       .  A
C307        N312   1.356       .  A
C307       C3445   1.480       .  S
N308        C309   1.359       .  A
C309        N310   1.362       .  A
C309       C3430   1.495       .  S
N310        C311   1.361       .  A
C311        N312   1.357       .  A
C311       C3486   1.489       .  S
N313        C317   1.352       .  A
N313        N314   1.322       .  A
N313       Cu321   2.106       .  S
N314        C315   1.340       .  A
N314       Cu320   2.053       .  S
C315        C316   1.380       .  A
C315        H318   1.082       .  S
C316       C3389   1.486       .  S
C316        C317   1.393       .  A
C317        H319   1.082       .  S
Cu320       N323   2.052       .  S
Cu321       N331   2.107       .  S
Cu322       N324   2.071       .  S
Cu322       N330   2.073       .  S
N323        C327   1.342       .  A
N323        N324   1.319       .  A
N324        C325   1.345       .  A
C325        C326   1.387       .  A
C325        H328   1.082       .  S
C326       C3458   1.477       .  S
C326        C327   1.382       .  A
C327        H329   1.082       .  S
N330        C334   1.343       .  A
N330        N331   1.324       .  A
N331        C332   1.351       .  A
C332        C333   1.392       .  A
C332        H335   1.082       .  S
C333       C3598   1.492       .  S
C333        C334   1.384       .  A
C334        H336   1.081       .  S
C337        N338   1.361       .  A
C337        N342   1.357       .  A
C337       C3361   1.492       .  S
N338        C339   1.361       .  A
C339        N340   1.359       .  A
C339       C3417   1.486       .  S
N340        C341   1.358       .  A
C341        N342   1.356       .  A
C341       C3333   1.483       .  S
N343        C347   1.352       .  A
N343        N344   1.324       .  A
N343       Cu351   2.111       .  S
N344        C345   1.344       .  A
N344       Cu350   2.079       .  S
C345        C346   1.384       .  A
C345        H348   1.082       .  S
C346       C3626   1.493       .  S
C346        C347   1.393       .  A
C347        H349   1.082       .  S
Cu350       N353   2.077       .  S
Cu351       N361   2.110       .  S
Cu352       N354   2.064       .  S
Cu352       N360   2.065       .  S
N353        C357   1.346       .  A
N353        N354   1.319       .  A
N354        C355   1.343       .  A
C355        C356   1.388       .  A
C355        H358   1.082       .  S
C356       C3374   1.492       .  S
C356        C357   1.392       .  A
C357        H359   1.081       .  S
N360        C364   1.343       .  A
N360        N361   1.323       .  A
N361        C362   1.352       .  A
C362        C363   1.393       .  A
C362        H365   1.082       .  S
C363       C3305   1.490       .  S
C363        C364   1.382       .  A
C364        H366   1.082       .  S
N367        C371   1.348       .  A
N367        N368   1.323       .  A
N367       Cu375   2.096   1_554  S
N368        C369   1.345       .  A
N368       Cu374   2.073       .  S
C369        C370   1.385       .  A
C369        H372   1.082       .  S
C370       C3221   1.489       .  S
C370        C371   1.390       .  A
C371        H373   1.082       .  S
Cu374       N377   2.072   1_554  S
Cu375       N385   2.096       .  S
Cu376       N378   2.067       .  S
Cu376       N384   2.067       .  S
N377        C381   1.345   1_556  A
N377        N378   1.321       .  A
N378        C379   1.343       .  A
C379        C380   1.384       .  A
C379        H382   1.082       .  S
C380       C3277   1.481       .  S
C380        C381   1.386   1_556  A
C381        H383   1.082       .  S
N384        C388   1.341       .  A
N384        N385   1.320       .  A
N385        C386   1.350       .  A
C386        C387   1.396       .  A
C386        H389   1.080       .  S
C387       C3249   1.500       .  S
C387        C388   1.388       .  A
C388        H390   1.081       .  S
C391        N392   1.360       .  A
C391        N396   1.360       .  A
C391       C3290   1.483       .  S
N392        C393   1.359       .  A
C393        N394   1.357       .  A
C393       C3346   1.487       .  S
N394        C395   1.357       .  A
C395        N396   1.359       .  A
C395       C3193   1.490   1_556  S
C397        N398   1.357       .  A
C397        N402   1.354       .  A
C397       C3165   1.473       .  S
N398        C399   1.359       .  A
C399        N400   1.361       .  A
C399       C3137   1.482       .  S
N400        C401   1.360       .  A
C401        N402   1.356       .  A
C401       C3206   1.480       .  S
N403        C407   1.350       .  A
N403        N404   1.322       .  A
N403       Cu411   2.097       .  S
N404        C405   1.341       .  A
N404       Cu410   2.062       .  S
C405        C406   1.382       .  A
C405        H408   1.082       .  S
C406       C3109   1.488       .  S
C406        C407   1.391       .  A
C407        H409   1.081       .  S
Cu410       N413   2.060       .  S
Cu411       N421   2.097       .  S
Cu412       N414   2.068       .  S
Cu412       N420   2.069       .  S
N413        C417   1.343       .  A
N413        N414   1.319       .  A
N414        C415   1.343       .  A
C415        C416   1.387       .  A
C415        H418   1.082       .  S
C416       C3178   1.483       .  S
C416        C417   1.386       .  A
C417        H419   1.081       .  S
N420        C424   1.342       .  A
N420        N421   1.323       .  A
N421        C422   1.350       .  A
C422        C423   1.390       .  A
C422        H425   1.082       .  S
C423       C3081   1.486       .  S
C423        C424   1.382       .  A
C424        H426   1.082       .  S
C427        N428   1.358       .  A
C427        N432   1.358       .  A
C427       C3053   1.486       .  S
N428        C429   1.358       .  A
C429        N430   1.360       .  A
C429       C3150   1.488       .  S
N430        C431   1.361       .  A
C431        N432   1.359       .  A
C431       C3514   1.489       .  S
N433        C437   1.351       .  A
N433        N434   1.323       .  A
N433       Cu441   2.110       .  S
N434        C435   1.342       .  A
N434       Cu440   2.068       .  S
C435        C436   1.385       .  A
C435        H438   1.081       .  S
C436       C3038   1.498       .  S
C436        C437   1.396       .  A
C437        H439   1.081       .  S
Cu440       N443   2.067       .  S
Cu441       N451   2.110       .  S
Cu442       N444   2.068       .  S
Cu442       N450   2.069       .  S
N443        C447   1.344       .  A
N443        N444   1.319       .  A
N444        C445   1.346       .  A
C445        C446   1.385       .  A
C445        H448   1.082       .  S
C446       C3066   1.478       .  S
C446        C447   1.384       .  A
C447        H449   1.082       .  S
N450        C454   1.341       .  A
N450        N451   1.323       .  A
N451        C452   1.353       .  A
C452        C453   1.395       .  A
C452        H455   1.082       .  S
C453       C4970   1.496       .  S
C453        C454   1.384       .  A
C454        H456   1.081       .  S
C457        N458   1.365       .  A
C457        N462   1.364       .  A
C457       C2997   1.496       .  S
N458        C459   1.362       .  A
C459        N460   1.358       .  A
C459       C2969   1.492       .  S
N460        C461   1.357       .  A
C461        N462   1.362       .  A
C461       C4130   1.489       .  S
C463        N464   1.363       .  A
C463        N468   1.365       .  A
C463       C3010   1.496       .  S
N464        C465   1.360       .  A
C465        N466   1.358       .  A
C465       C3990   1.486       .  S
N466        C467   1.359       .  A
C467        N468   1.363       .  A
C467       C2941   1.501       .  S
C469        N470   1.364       .  A
C469        N474   1.364       .  A
C469       C2913   1.500       .  S
N470        C471   1.360       .  A
C471        N472   1.358       .  A
C471       C3318   1.490       .  S
N472        C473   1.359       .  A
C473        N474   1.362       .  A
C473       C2982   1.499       .  S
C475        N476   1.364       .  A
C475        N480   1.362       .  A
C475       C2926   1.496       .  S
N476        C477   1.362       .  A
C477        N478   1.359       .  A
C477       C3262   1.493       .  S
N478        C479   1.359       .  A
C479        N480   1.360       .  A
C479       C2885   1.494       .  S
C481        N482   1.363       .  A
C481        N486   1.367       .  A
C481       C2857   1.505       .  S
N482        C483   1.360       .  A
C483        N484   1.354       .  A
C483       C2829   1.497       .  S
N484        C485   1.356       .  A
C485        N486   1.363       .  A
C485       C2954   1.492       .  S
C487        N488   1.361       .  A
C487        N492   1.365       .  A
C487       C2870   1.486       .  S
N488        C489   1.357       .  A
C489        N490   1.355       .  A
C489       C2801   1.485       .  S
N490        C491   1.355       .  A
C491        N492   1.363       .  A
C491       C2786   1.494       .  S
C493        N494   1.363       .  A
C493        N498   1.363       .  A
C493       C2745   1.493       .  S
N494        C495   1.362       .  A
C495        N496   1.357       .  A
C495       C2717   1.497       .  S
N496        C497   1.358       .  A
C497        N498   1.360       .  A
C497       C2898   1.488       .  S
C499        N500   1.361       .  A
C499        N504   1.364       .  A
C499       C2758   1.492       .  S
N500        C501   1.360       .  A
C501        N502   1.355       .  A
C501       C2814   1.488       .  S
N502        C503   1.355       .  A
C503        N504   1.361       .  A
C503       C2689   1.487       .  S
C505        N506   1.363       .  A
C505        N510   1.364       .  A
C505       C2661   1.490       .  S
N506        C507   1.361       .  A
C507        N508   1.356       .  A
C507       C3094   1.487       .  S
N508        C509   1.358       .  A
C509        N510   1.363       .  A
C509       C2646   1.497       .  S
C511        N512   1.363       .  A
C511        N516   1.365       .  A
C511       C2674   1.493       .  S
N512        C513   1.360       .  A
C513        N514   1.356       .  A
C513       C3025   1.499       .  S
N514        C515   1.356       .  A
C515        N516   1.363       .  A
C515       C2605   1.489       .  S
C517        N518   1.361       .  A
C517        N522   1.365       .  A
C517       C2577   1.492       .  S
N518        C519   1.358       .  A
C519        N520   1.356       .  A
C519       C2549   1.490       .  S
N520        C521   1.357       .  A
C521        N522   1.363       .  A
C521       C2633   1.485       .  S
C523        N524   1.366       .  A
C523        N528   1.366       .  A
C523       C2590   1.493       .  S
N524        C525   1.361       .  A
C525        N526   1.352       .  A
C525       C2506   1.481       .  S
N526        C527   1.355       .  A
C527        N528   1.363       .  A
C527       C2521   1.499       .  S
C529        N530   1.362       .  A
C529        N534   1.362       .  A
C529       C2465   1.490       .  S
N530        C531   1.359       .  A
C531        N532   1.357       .  A
C531       C2618   1.480       .  S
N532        C533   1.358       .  A
C533        N534   1.362       .  A
C533       C4410   1.500       .  S
C535        N536   1.362       .  A
C535        N540   1.364       .  A
C535       C2478   1.490       .  S
N536        C537   1.359       .  A
C537        N538   1.355       .  A
C537       C4341   1.484       .  S
N538        C539   1.357       .  A
C539        N540   1.361       .  A
C539       C2437   1.490       .  S
C541        N542   1.365       .  A
C541        N546   1.362       .  A
C541       C2409   1.493       .  S
N542        C543   1.361       .  A
C543        N544   1.355       .  A
C543       C2381   1.482       .  S
N544        C545   1.356       .  A
C545        N546   1.360       .  A
C545       C2534   1.476       .  S
C547        N548   1.363       .  A
C547        N552   1.366       .  A
C547       C2422   1.499       .  S
N548        C549   1.359       .  A
C549        N550   1.355       .  A
C549       C2353   1.492       .  S
N550        C551   1.358       .  A
C551        N552   1.362       .  A
C551       C2450   1.501       .  S
C553        N554   1.364       .  A
C553        N558   1.363       .  A
C553       C2325   1.495       .  S
N554        C555   1.363       .  A
C555        N556   1.358       .  A
C555       C2297   1.489       .  S
N556        C557   1.356       .  A
C557        N558   1.359       .  A
C557       C3402   1.478       .  S
C559        N560   1.364       .  A
C559        N564   1.364       .  A
C559       C2338   1.501       .  S
N560        C561   1.360       .  A
C561        N562   1.356       .  A
C561       C2269   1.483       .  S
N562        C563   1.356       .  A
C563        N564   1.361       .  A
C563       C3542   1.490       .  S
C565        N566   1.362       .  A
C565        N570   1.361       .  A
C565       C2241   1.492       .  S
N566        C567   1.362       .  A
C567        N568   1.358       .  A
C567       C2198   1.501       .  S
N568        C569   1.359       .  A
C569        N570   1.359       .  A
C569       C2213   1.485       .  S
C571        N572   1.363       .  A
C571        N576   1.360       .  A
C571       C2254   1.488       .  S
N572        C573   1.363       .  A
C573        N574   1.361       .  A
C573       C2282   1.499       .  S
N574        C575   1.358       .  A
C575        N576   1.357       .  A
C575       C2157   1.486       .  S
C577        N578   1.363       .  A
C577        N582   1.363       .  A
C577       C2129   1.492       .  S
N578        C579   1.360       .  A
C579        N580   1.355       .  A
C579       C4494   1.486       .  S
N580        C581   1.356       .  A
C581        N582   1.361       .  A
C581       C2101   1.488       .  S
C583        N584   1.361       .  A
C583        N588   1.366       .  A
C583       C2142   1.498       .  S
N584        C585   1.356       .  A
C585        N586   1.356       .  A
C585       C2226   1.488       .  S
N586        C587   1.358       .  A
C587        N588   1.365       .  A
C587       C4242   1.500       .  S
C589        N590   1.364       .  A
C589        N594   1.364       .  A
C589       C2073   1.496       .  S
N590        C591   1.361       .  A
C591        N592   1.357       .  A
C591       C2310   1.494       .  S
N592        C593   1.358       .  A
C593        N594   1.363       .  A
C593       C2045   1.498       .  S
C595        N596   1.366       .  A
C595        N600   1.364       .  A
C595       C2086   1.495       .  S
N596        C597   1.362       .  A
C597        N598   1.356       .  A
C597       C2114   1.494       .  S
N598        C599   1.354       .  A
C599        N600   1.360       .  A
C599       C2030   1.487       .  S
C601        N602   1.357   1_455  A
C601        N606   1.358       .  A
C601       C2002   1.480       .  S
N602        C603   1.359       .  A
C603        N604   1.360   1_655  A
C603       C1933   1.488       .  S
N604        C605   1.359       .  A
C605        N606   1.357       .  A
C605       C1961   1.477       .  S
N607        C611   1.354       .  A
N607        N608   1.323       .  A
N607       Cu615   2.116   1_655  S
N608        C609   1.340       .  A
N608       Cu614   2.059       .  S
C609        C610   1.382       .  A
C609        H612   1.081       .  S
C610       C2394   1.493       .  S
C610        C611   1.395       .  A
C611        H613   1.082       .  S
Cu614       N617   2.058       .  S
Cu615       N625   2.116       .  S
Cu616       N618   2.060       .  S
Cu616       N624   2.061       .  S
N617        C621   1.344       .  A
N617        N618   1.318   1_655  A
N618        C619   1.342       .  A
C619        C620   1.385       .  A
C619        H622   1.082       .  S
C620       C1989   1.479       .  S
C620        C621   1.386   1_455  A
C621        H623   1.081       .  S
N624        C628   1.342       .  A
N624        N625   1.323       .  A
N625        C626   1.353       .  A
C626        C627   1.394       .  A
C626        H629   1.082       .  S
C627       C4830   1.492       .  S
C627        C628   1.382       .  A
C628        H630   1.081       .  S
C631        N632   1.360       .  A
C631        N636   1.359   1_556  A
C631       C1905   1.495       .  S
N632        C633   1.360       .  A
C633        N634   1.360       .  A
C633       C1877   1.490       .  S
N634        C635   1.359   1_556  A
C635        N636   1.358       .  A
C635       C1974   1.483       .  S
N637        C641   1.350       .  A
N637        N638   1.323       .  A
N637       Cu645   2.099       .  S
N638        C639   1.343       .  A
N638       Cu644   2.067       .  S
C639        C640   1.382       .  A
C639        H642   1.082       .  S
C640       C2170   1.486       .  S
C640        C641   1.390       .  A
C641        H643   1.082       .  S
Cu644       N647   2.067       .  S
Cu645       N655   2.099   1_556  S
Cu646       N648   2.066   1_554  S
Cu646       N654   2.067       .  S
N647        C651   1.343       .  A
N647        N648   1.319       .  A
N648        C649   1.344   1_556  A
C649        C650   1.387   1_554  A
C649        H652   1.082       .  S
C650       C1918   1.485       .  S
C650        C651   1.387       .  A
C651        H653   1.081       .  S
N654        C658   1.342       .  A
N654        N655   1.323       .  A
N655        C656   1.350       .  A
C656        C657   1.392       .  A
C656        H659   1.081       .  S
C657       C4802   1.489       .  S
C657        C658   1.382       .  A
C658        H660   1.082       .  S
C661        N662   1.356   1_565  A
C661        N666   1.358       .  A
C661       C1849   1.484       .  S
N662        C663   1.355       .  A
C663        N664   1.358   1_545  A
C663       C1821   1.484       .  S
N664        C665   1.359       .  A
C665        N666   1.360       .  A
C665       C1946   1.482       .  S
N667        C671   1.353       .  A
N667        N668   1.323       .  A
N667       Cu675   2.108   1_565  S
N668        C669   1.342       .  A
N668       Cu674   2.063       .  S
C669        C670   1.380       .  A
C669        H672   1.082       .  S
C670       C2366   1.486       .  S
C670        C671   1.393       .  A
C671        H673   1.082       .  S
Cu674       N677   2.062       .  S
Cu675       N685   2.109       .  S
Cu676       N678   2.066       .  S
Cu676       N684   2.068       .  S
N677        C681   1.342       .  A
N677        N678   1.320   1_565  A
N678        C679   1.346       .  A
C679        C680   1.385       .  A
C679        H682   1.082       .  S
C680       C1862   1.474   1_545  S
C680        C681   1.381   1_545  A
C681        H683   1.082       .  S
N684        C688   1.342       .  A
N684        N685   1.325       .  A
N685        C686   1.352       .  A
C686        C687   1.391       .  A
C686        H689   1.082       .  S
C687       C1793   1.487       .  S
C687        C688   1.380       .  A
C688        H690   1.082       .  S
C691        N692   1.359   1_556  A
C691        N696   1.361       .  A
C691       C1765   1.484       .  S
N692        C693   1.358       .  A
C693        N694   1.357   1_554  A
C693       C1834   1.485       .  S
N694        C695   1.358       .  A
C695        N696   1.361       .  A
C695       C1737   1.491       .  S
N697        C701   1.352       .  A
N697        N698   1.324       .  A
N697       Cu705   2.107       .  S
N698        C699   1.345       .  A
N698       Cu704   2.078       .  S
C699        C700   1.383       .  A
C699        H702   1.082       .  S
C700       C2730   1.489       .  S
C700        C701   1.390       .  A
C701        H703   1.082       .  S
Cu704       N707   2.077       .  S
Cu705       N715   2.107   1_556  S
Cu706       N708   2.070   1_554  S
Cu706       N714   2.071       .  S
N707        C711   1.346       .  A
N707        N708   1.320       .  A
N708        C709   1.345   1_556  A
C709        C710   1.385   1_554  A
C709        H712   1.082       .  S
C710       C1778   1.485       .  S
C710        C711   1.388       .  A
C711        H713   1.082       .  S
N714        C718   1.343       .  A
N714        N715   1.322       .  A
N715        C716   1.351       .  A
C716        C717   1.397       .  A
C716        H719   1.080       .  S
C717       C1709   1.502       .  S
C717        C718   1.388       .  A
C718        H720   1.081       .  S
C721        N722   1.361       .  A
C721        N726   1.359       .  A
C721       C1694   1.497       .  S
N722        C723   1.360       .  A
C723        N724   1.360       .  A
C723       C1750   1.485   1_455  S
N724        C725   1.359       .  A
C725        N726   1.358       .  A
C725       C1666   1.489       .  S
N727        C731   1.350       .  A
N727        N728   1.323       .  A
N727       Cu735   2.098   1_655  S
N728        C729   1.341       .  A
N728       Cu734   2.063       .  S
C729        C730   1.380       .  A
C729        H732   1.082       .  S
C730       C2702   1.483       .  S
C730        C731   1.390       .  A
C731        H733   1.082       .  S
Cu734       N737   2.062   1_655  S
Cu735       N745   2.099       .  S
Cu736       N738   2.072       .  S
Cu736       N744   2.073       .  S
N737        C741   1.344       .  A
N737        N738   1.318       .  A
N738        C739   1.345       .  A
C739        C740   1.389       .  A
C739        H742   1.082       .  S
C740       C1681   1.489       .  S
C740        C741   1.388       .  A
C741        H743   1.081   1_455  S
N744        C748   1.342       .  A
N744        N745   1.324       .  A
N745        C746   1.351       .  A
C746        C747   1.392       .  A
C746        H749   1.082       .  S
C747       C3906   1.488       .  S
C747        C748   1.382       .  A
C748        H750   1.082       .  S
C751        N752   1.362   1_565  A
C751        N756   1.362       .  A
C751       C1625   1.491       .  S
N752        C753   1.360       .  A
C753        N754   1.357       .  A
C753       C1653   1.488       .  S
N754        C755   1.358   1_545  A
C755        N756   1.361       .  A
C755       C1890   1.488       .  S
N757        C761   1.351       .  A
N757        N758   1.324       .  A
N757       Cu765   2.102       .  S
N758        C759   1.343       .  A
N758       Cu764   2.079       .  S
C759        C760   1.383       .  A
C759        H762   1.082       .  S
C760       C2185   1.489       .  S
C760        C761   1.390       .  A
C761        H763   1.082       .  S
Cu764       N767   2.078       .  S
Cu765       N775   2.101   1_565  S
Cu766       N768   2.072       .  S
Cu766       N774   2.072       .  S
N767        C771   1.347       .  A
N767        N768   1.320   1_565  A
N768        C769   1.345       .  A
C769        C770   1.387   1_545  A
C769        H772   1.082       .  S
C770       C1638   1.487       .  S
C770        C771   1.388       .  A
C771        H773   1.082       .  S
N774        C778   1.343       .  A
N774        N775   1.322       .  A
N775        C776   1.351       .  A
C776        C777   1.395       .  A
C776        H779   1.081       .  S
C777       C3850   1.496       .  S
C777        C778   1.386       .  A
C778        H780   1.082       .  S
C781        N782   1.363       .  A
C781        N786   1.361       .  A
C781       C1597   1.485       .  S
N782        C783   1.362       .  A
C783        N784   1.358       .  A
C783       C1569   1.490       .  S
N784        C785   1.359       .  A
C785        N786   1.359       .  A
C785       C4018   1.499       .  S
C787        N788   1.363       .  A
C787        N792   1.365       .  A
C787       C1610   1.503       .  S
N788        C789   1.361       .  A
C789        N790   1.358       .  A
C789       C1541   1.491       .  S
N790        C791   1.357       .  A
C791        N792   1.361       .  A
C791       C4313   1.484       .  S
C793        N794   1.365       .  A
C793        N798   1.362       .  A
C793       C1513   1.493       .  S
N794        C795   1.362       .  A
C795        N796   1.357       .  A
C795       C1722   1.488       .  S
N796        C797   1.357       .  A
C797        N798   1.360       .  A
C797       C1485   1.486       .  S
C799        N800   1.367       .  A
C799        N804   1.362       .  A
C799       C1526   1.503       .  S
N800        C801   1.364       .  A
C801        N802   1.358       .  A
C801       C1554   1.504       .  S
N802        C803   1.354       .  A
C803        N804   1.359       .  A
C803       C1806   1.492       .  S
C805        N806   1.363       .  A
C805        N810   1.367       .  A
C805       C1457   1.495       .  S
N806        C807   1.359       .  A
C807        N808   1.355       .  A
C807       C3122   1.486       .  S
N808        C809   1.358       .  A
C809        N810   1.364       .  A
C809       C1442   1.507       .  S
C811        N812   1.364       .  A
C811        N816   1.366       .  A
C811       C1470   1.498       .  S
N812        C813   1.362       .  A
C813        N814   1.354       .  A
C813       C3234   1.496       .  S
N814        C815   1.354       .  A
C815        N816   1.360       .  A
C815       C1498   1.477       .  S
C817        N818   1.362       .  A
C817        N822   1.360       .  A
C817       C1401   1.481       .  S
N818        C819   1.362       .  A
C819        N820   1.359       .  A
C819       C1429   1.487       .  S
N820        C821   1.358       .  A
C821        N822   1.359       .  A
C821       C1373   1.484       .  S
C823        N824   1.365       .  A
C823        N828   1.361       .  A
C823       C1414   1.503       .  S
N824        C825   1.362       .  A
C825        N826   1.361       .  A
C825       C1582   1.494       .  S
N826        C827   1.358       .  A
C827        N828   1.358       .  A
C827       C1345   1.485       .  S
N829        C833   1.351       .  A
N829        N830   1.323       .  A
N829       Cu837   2.099       .  S
N830        C831   1.341       .  A
N830       Cu836   2.065       .  S
C831        C832   1.381       .  A
C831        H834   1.082       .  S
C832       C4690   1.486       .  S
C832        C833   1.391       .  A
C833        H835   1.082       .  S
Cu836       N839   2.064       .  S
Cu837       N847   2.099   1_455  S
Cu838       N840   2.069   1_655  S
Cu838       N846   2.070       .  S
N839        C843   1.345       .  A
N839        N840   1.319       .  A
N840        C841   1.345       .  A
C841        C842   1.386       .  A
C841        H844   1.082   1_455  S
C842       C1317   1.481       .  S
C842        C843   1.385       .  A
C843        H845   1.082       .  S
N846        C850   1.341       .  A
N846        N847   1.323       .  A
N847        C848   1.350       .  A
C848        C849   1.392       .  A
C848        H851   1.082       .  S
C849       C2493   1.491       .  S
C849        C850   1.384       .  A
C850        H852   1.081       .  S
C853        N854   1.358       .  A
C853        N858   1.362       .  A
C853       C1330   1.491       .  S
N854        C855   1.357       .  A
C855        N856   1.356       .  A
C855       C1261   1.476   1_455  S
N856        C857   1.357       .  A
C857        N858   1.361       .  A
C857       C1289   1.484       .  S
N859        C863   1.351       .  A
N859        N860   1.323       .  A
N859       Cu867   2.097       .  S
N860        C861   1.342       .  A
N860       Cu866   2.072       .  S
C861        C862   1.383       .  A
C861        H864   1.082       .  S
C862       C1386   1.489       .  S
C862        C863   1.392       .  A
C863        H865   1.082       .  S
Cu866       N869   2.072       .  S
Cu867       N877   2.098       .  S
Cu868       N870   2.071       .  S
Cu868       N876   2.072       .  S
N869        C873   1.344       .  A
N869        N870   1.319       .  A
N870        C871   1.346       .  A
C871        C872   1.388       .  A
C871        H874   1.082       .  S
C872       C1233   1.487       .  S
C872        C873   1.388       .  A
C873        H875   1.081       .  S
N876        C880   1.343       .  A
N876        N877   1.324       .  A
N877        C878   1.350       .  A
C878        C879   1.389       .  A
C878        H881   1.082       .  S
C879       C2562   1.485       .  S
C879        C880   1.381       .  A
C880        H882   1.082       .  S
C883        N884   1.358       .  A
C883        N888   1.363       .  A
C883       C1246   1.497       .  S
N884        C885   1.356       .  A
C885        N886   1.356       .  A
C885       C1274   1.479       .  S
N886        C887   1.357       .  A
C887        N888   1.361       .  A
C887       C1205   1.479       .  S
C889        N890   1.359       .  A
C889        N894   1.357       .  A
C889       C1177   1.483       .  S
N890        C891   1.361       .  A
C891        N892   1.361       .  A
C891       C1149   1.484       .  S
N892        C893   1.359       .  A
C893        N894   1.357       .  A
C893       C1218   1.478       .  S
N895        C899   1.351       .  A
N895        N896   1.323       .  A
N895       Cu903   2.105       .  S
N896        C897   1.342       .  A
N896       Cu902   2.072       .  S
C897        C898   1.385       .  A
C897        H900   1.081       .  S
C898       C1358   1.495       .  S
C898        C899   1.394       .  A
C899        H901   1.082       .  S
Cu902       N905   2.071       .  S
Cu903       N913   2.105       .  S
Cu904       N906   2.058       .  S
Cu904       N912   2.058       .  S
N905        C909   1.345       .  A
N905        N906   1.319       .  A
N906        C907   1.344       .  A
C907        C908   1.383       .  A
C907        H910   1.082       .  S
C908       C1190   1.479       .  S
C908        C909   1.386       .  A
C909        H911   1.082       .  S
N912        C916   1.339       .  A
N912        N913   1.322       .  A
N913        C914   1.352       .  A
C914        C915   1.393       .  A
C914        H917   1.082       .  S
C915       C2842   1.490       .  S
C915        C916   1.382       .  A
C916        H918   1.081       .  S
N919        C923   1.350       .  A
N919        N920   1.322       .  A
N919       Cu927   2.094   1_655  S
N920        C921   1.342       .  A
N920       Cu926   2.065       .  S
C921        C922   1.383       .  A
C921        H924   1.082       .  S
C922       C2773   1.487       .  S
C922        C923   1.391       .  A
C923        H925   1.082       .  S
Cu926       N929   2.064   1_655  S
Cu927       N937   2.095       .  S
Cu928       N930   2.068       .  S
Cu928       N936   2.069       .  S
N929        C933   1.342       .  A
N929        N930   1.320       .  A
N930        C931   1.346       .  A
C931        C932   1.386       .  A
C931        H934   1.082       .  S
C932       C1134   1.477       .  S
C932        C933   1.382       .  A
C933        H935   1.082   1_455  S
N936        C940   1.343       .  A
N936        N937   1.325       .  A
N937        C938   1.349       .  A
C938        C939   1.386       .  A
C938        H941   1.082       .  S
C939       C3725   1.480       .  S
C939        C940   1.381       .  A
C940        H942   1.082       .  S
C943        N944   1.358   1_455  A
C943        N948   1.356       .  A
C943       C1121   1.488       .  S
N944        C945   1.359       .  A
C945        N946   1.358   1_655  A
C945       C1162   1.474       .  S
N946        C947   1.358       .  A
C947        N948   1.356       .  A
C947       C1093   1.476       .  S
N949        C953   1.349       .  A
N949        N950   1.322       .  A
N949       Cu957   2.093       .  S
N950        C951   1.341       .  A
N950       Cu956   2.062       .  S
C951        C952   1.384       .  A
C951        H954   1.081       .  S
C952       C4718   1.489       .  S
C952        C953   1.391       .  A
C953        H955   1.082       .  S
Cu956       N959   2.062       .  S
Cu957       N967   2.094       .  S
Cu958       N960   2.067       .  S
Cu958       N966   2.069       .  S
N959        C963   1.341       .  A
N959        N960   1.318       .  A
N960        C961   1.345       .  A
C961        C962   1.391       .  A
C961        H964   1.080       .  S
C962       C1078   1.490       .  S
C962        C963   1.388       .  A
C963        H965   1.081       .  S
N966        C970   1.341       .  A
N966        N967   1.323       .  A
N967        C968   1.349       .  A
C968        C969   1.392       .  A
C968        H971   1.081       .  S
C969       C2017   1.491       .  S
C969        C970   1.384       .  A
C970        H972   1.082       .  S
C973        N974   1.356       .  A
C973        N978   1.358       .  A
C973       C1065   1.481       .  S
N974        C975   1.356       .  A
C975        N976   1.360       .  A
C975       C1037   1.485       .  S
N976        C977   1.360       .  A
C977        N978   1.360       .  A
C977       C1302   1.491       .  S
N979        C983   1.352       .  A
N979        N980   1.323       .  A
N979       Cu987   2.107       .  S
N980        C981   1.341       .  A
N980       Cu986   2.064       .  S
C981        C982   1.382       .  A
C981        H984   1.081       .  S
C982       C2058   1.491       .  S
C982        C983   1.393       .  A
C983        H985   1.082       .  S
Cu986       N989   2.064       .  S
Cu987       N997   2.107       .  S
Cu988       N990   2.068       .  S
Cu988       N996   2.069       .  S
N989        C993   1.344       .  A
N989        N990   1.319       .  A
N990        C991   1.345       .  A
C991        C992   1.386       .  A
C991        H994   1.082       .  S
C992       C1022   1.481       .  S
C992        C993   1.385       .  A
C993        H995   1.082       .  S
N996       C1000   1.342       .  A
N996        N997   1.324       .  A
N997        C998   1.352       .  A
C998        C999   1.393       .  A
C998       H1001   1.081       .  S
C999       C3766   1.492       .  S
C999       C1000   1.382       .  A
C1000      H1002   1.082       .  S
C1003      N1004   1.360       .  A
C1003      N1008   1.359       .  A
C1003      C1009   1.482       .  S
N1004      C1005   1.359       .  A
C1005      N1006   1.357       .  A
C1005      C1050   1.484       .  S
N1006      C1007   1.354       .  A
C1007      N1008   1.359       .  A
C1007      C1106   1.489       .  S
C1009      C1010   1.414       .  A
C1009      C1014   1.406       .  A
C1010      C1011   1.406       .  A
C1010      N1015   1.437       .  S
C1011      C1012   1.400       .  A
C1011      H1016   1.084       .  S
C1012      C1017   1.477       .  S
C1012      C1013   1.407       .  A
C1013      C1014   1.404       .  A
C1013      N1018   1.438       .  S
C1014      H1019   1.084       .  S
N1015      H1035   1.046       .  S
N1015      H1036   1.046       .  S
C1017      C1020   1.400       .  A
C1017      C1024   1.407       .  A
N1018      H1033   1.046       .  S
N1018      H1034   1.046       .  S
C1020      C1021   1.405       .  A
C1020      H1025   1.084       .  S
C1021      C1022   1.414       .  A
C1021      N1026   1.437       .  S
C1022      C1023   1.405       .  A
C1023      C1024   1.405       .  A
C1023      H1027   1.083       .  S
C1024      N1028   1.437       .  S
N1026      H1029   1.046       .  S
N1026      H1030   1.046       .  S
N1028      H1031   1.046       .  S
N1028      H1032   1.046       .  S
C1037      C1038   1.414       .  A
C1037      C1042   1.408       .  A
C1038      C1039   1.404       .  A
C1038      N1043   1.438       .  S
C1039      C1040   1.402       .  A
C1039      H1044   1.084       .  S
C1040      C1045   1.481       .  S
C1040      C1041   1.408       .  A
C1041      C1042   1.404       .  A
C1041      N1046   1.438       .  S
C1042      H1047   1.083       .  S
N1043      H1063   1.046       .  S
N1043      H1064   1.046       .  S
C1045      C1048   1.402       .  A
C1045      C1052   1.408       .  A
N1046      H1061   1.046       .  S
N1046      H1062   1.046       .  S
C1048      C1049   1.407       .  A
C1048      H1053   1.084       .  S
C1049      C1050   1.415       .  A
C1049      N1054   1.437       .  S
C1050      C1051   1.406       .  A
C1051      C1052   1.401       .  A
C1051      H1055   1.083       .  S
C1052      N1056   1.438       .  S
N1054      H1057   1.046       .  S
N1054      H1058   1.046       .  S
N1056      H1059   1.046       .  S
N1056      H1060   1.046       .  S
C1065      C1066   1.413       .  A
C1065      C1070   1.405       .  A
C1066      C1067   1.405       .  A
C1066      N1071   1.438       .  S
C1067      C1068   1.404       .  A
C1067      H1072   1.084       .  S
C1068      C1073   1.485       .  S
C1068      C1069   1.411       .  A
C1069      C1070   1.403       .  A
C1069      N1074   1.438       .  S
C1070      H1075   1.084       .  S
N1071      H1091   1.046       .  S
N1071      H1092   1.046       .  S
C1073      C1076   1.402       .  A
C1073      C1080   1.409       .  A
N1074      H1089   1.046       .  S
N1074      H1090   1.046       .  S
C1076      C1077   1.406       .  A
C1076      H1081   1.084       .  S
C1077      C1078   1.417       .  A
C1077      N1082   1.437       .  S
C1078      C1079   1.407       .  A
C1079      C1080   1.403       .  A
C1079      H1083   1.082       .  S
C1080      N1084   1.438       .  S
N1082      H1085   1.046       .  S
N1082      H1086   1.046       .  S
N1084      H1087   1.046       .  S
N1084      H1088   1.046       .  S
C1093      C1094   1.413       .  A
C1093      C1098   1.404       .  A
C1094      C1095   1.400       .  A
C1094      N1099   1.438       .  S
C1095      C1096   1.400       .  A
C1095      H1100   1.084       .  S
C1096      C1101   1.479       .  S
C1096      C1097   1.410       .  A
C1097      C1098   1.406       .  A
C1097      N1102   1.437       .  S
C1098      H1103   1.084       .  S
N1099      H1119   1.046       .  S
N1099      H1120   1.046       .  S
C1101      C1104   1.399       .  A
C1101      C1108   1.407       .  A
N1102      H1117   1.046       .  S
N1102      H1118   1.046       .  S
C1104      C1105   1.405       .  A
C1104      H1109   1.084       .  S
C1105      C1106   1.420       .  A
C1105      N1110   1.438       .  S
C1106      C1107   1.407       .  A
C1107      C1108   1.403       .  A
C1107      H1111   1.083       .  S
C1108      N1112   1.438       .  S
N1110      H1113   1.046       .  S
N1110      H1114   1.045       .  S
N1112      H1115   1.046       .  S
N1112      H1116   1.046       .  S
C1121      C1122   1.417   1_455  A
C1121      C1126   1.409       .  A
C1122      C1123   1.405       .  A
C1122      N1127   1.438       .  S
C1123      C1124   1.401   1_655  A
C1123      H1128   1.084       .  S
C1124      C1129   1.479       .  S
C1124      C1125   1.406       .  A
C1125      C1126   1.403       .  A
C1125      N1130   1.438       .  S
C1126      H1131   1.083       .  S
N1127      H1147   1.046       .  S
N1127      H1148   1.046       .  S
C1129      C1132   1.403       .  A
C1129      C1136   1.408       .  A
N1130      H1145   1.046       .  S
N1130      H1146   1.046       .  S
C1132      C1133   1.405       .  A
C1132      H1137   1.084       .  S
C1133      C1134   1.412       .  A
C1133      N1138   1.437       .  S
C1134      C1135   1.404       .  A
C1135      C1136   1.402       .  A
C1135      H1139   1.084   1_455  S
C1136      N1140   1.438   1_455  S
N1138      H1141   1.046       .  S
N1138      H1142   1.046       .  S
N1140      H1143   1.046       .  S
N1140      H1144   1.046       .  S
C1149      C1150   1.414       .  A
C1149      C1154   1.406       .  A
C1150      C1151   1.406       .  A
C1150      N1155   1.438       .  S
C1151      C1152   1.400       .  A
C1151      H1156   1.084       .  S
C1152      C1157   1.478       .  S
C1152      C1153   1.408       .  A
C1153      C1154   1.407       .  A
C1153      N1158   1.438       .  S
C1154      H1159   1.084       .  S
N1155      H1175   1.046       .  S
N1155      H1176   1.046       .  S
C1157      C1160   1.401       .  A
C1157      C1164   1.409       .  A
N1158      H1173   1.046       .  S
N1158      H1174   1.045       .  S
C1160      C1161   1.406       .  A
C1160      H1165   1.084       .  S
C1161      C1162   1.411       .  A
C1161      N1166   1.438       .  S
C1162      C1163   1.402       .  A
C1163      C1164   1.405       .  A
C1163      H1167   1.084       .  S
C1164      N1168   1.438       .  S
N1166      H1169   1.046       .  S
N1166      H1170   1.046   1_655  S
N1168      H1171   1.046       .  S
N1168      H1172   1.045       .  S
C1177      C1178   1.416       .  A
C1177      C1182   1.406       .  A
C1178      C1179   1.405       .  A
C1178      N1183   1.438       .  S
C1179      C1180   1.400       .  A
C1179      H1184   1.084       .  S
C1180      C1185   1.480       .  S
C1180      C1181   1.408       .  A
C1181      C1182   1.406       .  A
C1181      N1186   1.438       .  S
C1182      H1187   1.084       .  S
N1183      H1203   1.046       .  S
N1183      H1204   1.046       .  S
C1185      C1188   1.401       .  A
C1185      C1192   1.409       .  A
N1186      H1201   1.046       .  S
N1186      H1202   1.046       .  S
C1188      C1189   1.405       .  A
C1188      H1193   1.084       .  S
C1189      C1190   1.412       .  A
C1189      N1194   1.437       .  S
C1190      C1191   1.404       .  A
C1191      C1192   1.406       .  A
C1191      H1195   1.084       .  S
C1192      N1196   1.438       .  S
N1194      H1197   1.046       .  S
N1194      H1198   1.046       .  S
N1196      H1199   1.046       .  S
N1196      H1200   1.046       .  S
C1205      C1206   1.413       .  A
C1205      C1210   1.404       .  A
C1206      C1207   1.405       .  A
C1206      N1211   1.438       .  S
C1207      C1208   1.400       .  A
C1207      H1212   1.084       .  S
C1208      C1213   1.479       .  S
C1208      C1209   1.409       .  A
C1209      C1210   1.408       .  A
C1209      N1214   1.437       .  S
C1210      H1215   1.084       .  S
N1211      H1231   1.046       .  S
N1211      H1232   1.046       .  S
C1213      C1216   1.402       .  A
C1213      C1220   1.408       .  A
N1214      H1229   1.046       .  S
N1214      H1230   1.045       .  S
C1216      C1217   1.408       .  A
C1216      H1221   1.084       .  S
C1217      C1218   1.412       .  A
C1217      N1222   1.437       .  S
C1218      C1219   1.404       .  A
C1219      C1220   1.404       .  A
C1219      H1223   1.084       .  S
C1220      N1224   1.438       .  S
N1222      H1225   1.046       .  S
N1222      H1226   1.046       .  S
N1224      H1227   1.046       .  S
N1224      H1228   1.045       .  S
C1233      C1234   1.414       .  A
C1233      C1238   1.406       .  A
C1234      C1235   1.406       .  A
C1234      N1239   1.437       .  S
C1235      C1236   1.401       .  A
C1235      H1240   1.084       .  S
C1236      C1241   1.484       .  S
C1236      C1237   1.409       .  A
C1237      C1238   1.407       .  A
C1237      N1242   1.438       .  S
C1238      H1243   1.083       .  S
N1239      H1259   1.046       .  S
N1239      H1260   1.046       .  S
C1241      C1244   1.398       .  A
C1241      C1248   1.408       .  A
N1242      H1257   1.046       .  S
N1242      H1258   1.046       .  S
C1244      C1245   1.406       .  A
C1244      H1249   1.084       .  S
C1245      C1246   1.423       .  A
C1245      N1250   1.438       .  S
C1246      C1247   1.409       .  A
C1247      C1248   1.406       .  A
C1247      H1251   1.083       .  S
C1248      N1252   1.438       .  S
N1250      H1253   1.046       .  S
N1250      H1254   1.045       .  S
N1252      H1255   1.046       .  S
N1252      H1256   1.046       .  S
C1261      C1262   1.412       .  A
C1261      C1266   1.405       .  A
C1262      C1263   1.404       .  A
C1262      N1267   1.438       .  S
C1263      C1264   1.400       .  A
C1263      H1268   1.084       .  S
C1264      C1269   1.473       .  S
C1264      C1265   1.407       .  A
C1265      C1266   1.404       .  A
C1265      N1270   1.438       .  S
C1266      H1271   1.084   1_655  S
N1267      H1287   1.046       .  S
N1267      H1288   1.046       .  S
C1269      C1272   1.400       .  A
C1269      C1276   1.407       .  A
N1270      H1285   1.046   1_655  S
N1270      H1286   1.045       .  S
C1272      C1273   1.406       .  A
C1272      H1277   1.084       .  S
C1273      C1274   1.414       .  A
C1273      N1278   1.437       .  S
C1274      C1275   1.404       .  A
C1275      C1276   1.403       .  A
C1275      H1279   1.084       .  S
C1276      N1280   1.438       .  S
N1278      H1281   1.046       .  S
N1278      H1282   1.046       .  S
N1280      H1283   1.046       .  S
N1280      H1284   1.045       .  S
C1289      C1290   1.416       .  A
C1289      C1294   1.405       .  A
C1290      C1291   1.406       .  A
C1290      N1295   1.438       .  S
C1291      C1292   1.402       .  A
C1291      H1296   1.084       .  S
C1292      C1297   1.486       .  S
C1292      C1293   1.411       .  A
C1293      C1294   1.406       .  A
C1293      N1298   1.438       .  S
C1294      H1299   1.084       .  S
N1295      H1315   1.046       .  S
N1295      H1316   1.046       .  S
C1297      C1300   1.402       .  A
C1297      C1304   1.409       .  A
N1298      H1313   1.046       .  S
N1298      H1314   1.046       .  S
C1300      C1301   1.406       .  A
C1300      H1305   1.084       .  S
C1301      C1302   1.417       .  A
C1301      N1306   1.438       .  S
C1302      C1303   1.408       .  A
C1303      C1304   1.406       .  A
C1303      H1307   1.083       .  S
C1304      N1308   1.438       .  S
N1306      H1309   1.046       .  S
N1306      H1310   1.046       .  S
N1308      H1311   1.046       .  S
N1308      H1312   1.046       .  S
C1317      C1318   1.413       .  A
C1317      C1322   1.404       .  A
C1318      C1319   1.407       .  A
C1318      N1323   1.437   1_455  S
C1319      C1320   1.401       .  A
C1319      H1324   1.084   1_455  S
C1320      C1325   1.479       .  S
C1320      C1321   1.408       .  A
C1321      C1322   1.405       .  A
C1321      N1326   1.438       .  S
C1322      H1327   1.083       .  S
N1323      H1343   1.046   1_655  S
N1323      H1344   1.046       .  S
C1325      C1328   1.399       .  A
C1325      C1332   1.406       .  A
N1326      H1341   1.046       .  S
N1326      H1342   1.046       .  S
C1328      C1329   1.406       .  A
C1328      H1333   1.084       .  S
C1329      C1330   1.420       .  A
C1329      N1334   1.438   1_455  S
C1330      C1331   1.408       .  A
C1331      C1332   1.406       .  A
C1331      H1335   1.083       .  S
C1332      N1336   1.437       .  S
N1334      H1337   1.046       .  S
N1334      H1338   1.046   1_655  S
N1336      H1339   1.046       .  S
N1336      H1340   1.046       .  S
C1345      C1346   1.413       .  A
C1345      C1350   1.404       .  A
C1346      C1347   1.409       .  A
C1346      N1351   1.438       .  S
C1347      C1348   1.405       .  A
C1347      H1352   1.084       .  S
C1348      C1353   1.492       .  S
C1348      C1349   1.412       .  A
C1349      C1350   1.408       .  A
C1349      N1354   1.438       .  S
C1350      H1355   1.084       .  S
N1351      H1371   1.046       .  S
N1351      H1372   1.046       .  S
C1353      C1356   1.402       .  A
C1353      C1360   1.411       .  A
N1354      H1369   1.046       .  S
N1354      H1370   1.046       .  S
C1356      C1357   1.407       .  A
C1356      H1361   1.084       .  S
C1357      C1358   1.418       .  A
C1357      N1362   1.437       .  S
C1358      C1359   1.407       .  A
C1359      C1360   1.410       .  A
C1359      H1363   1.083       .  S
C1360      N1364   1.437       .  S
N1362      H1365   1.046       .  S
N1362      H1366   1.046       .  S
N1364      H1367   1.046       .  S
N1364      H1368   1.046       .  S
C1373      C1374   1.414       .  A
C1373      C1378   1.405       .  A
C1374      C1375   1.407       .  A
C1374      N1379   1.438       .  S
C1375      C1376   1.402       .  A
C1375      H1380   1.084       .  S
C1376      C1381   1.484       .  S
C1376      C1377   1.409       .  A
C1377      C1378   1.407       .  A
C1377      N1382   1.437       .  S
C1378      H1383   1.084       .  S
N1379      H1399   1.046       .  S
N1379      H1400   1.046       .  S
C1381      C1384   1.403       .  A
C1381      C1388   1.407       .  A
N1382      H1397   1.046       .  S
N1382      H1398   1.046       .  S
C1384      C1385   1.411       .  A
C1384      H1389   1.084       .  S
C1385      C1386   1.414       .  A
C1385      N1390   1.437       .  S
C1386      C1387   1.407       .  A
C1387      C1388   1.404       .  A
C1387      H1391   1.083       .  S
C1388      N1392   1.438       .  S
N1390      H1393   1.046       .  S
N1390      H1394   1.046       .  S
N1392      H1395   1.046       .  S
N1392      H1396   1.046       .  S
C1401      C1402   1.413       .  A
C1401      C1406   1.403       .  A
C1402      C1403   1.402       .  A
C1402      N1407   1.432       .  S
C1403      C1404   1.407       .  A
C1403      H1408   1.084       .  S
C1404      C1409   1.497       .  S
C1404      C1405   1.415       .  A
C1405      C1406   1.408       .  A
C1405      N1410   1.438       .  S
C1406      H1411   1.084       .  S
N1407      H1427   1.046       .  S
N1407      H1428   1.045       .  S
C1409      C1412   1.403       .  A
C1409      C1416   1.412       .  A
N1410      H1425   1.046       .  S
N1410      H1426   1.045       .  S
C1412      C1413   1.408       .  A
C1412      H1417   1.083       .  S
C1413      C1414   1.422       .  A
C1413      N1418   1.438       .  S
C1414      C1415   1.410       .  A
C1415      C1416   1.409       .  A
C1415      H1419   1.082       .  S
C1416      N1420   1.438       .  S
N1418      H1421   1.046       .  S
N1418      H1422   1.046       .  S
N1420      H1423   1.046       .  S
N1420      H1424   1.046       .  S
C1429      C1430   1.414       .  A
C1429      C1434   1.407       .  A
C1430      C1431   1.405       .  A
C1430      N1435   1.438       .  S
C1431      C1432   1.400       .  A
C1431      H1436   1.084       .  S
C1432      C1437   1.484       .  S
C1432      C1433   1.410       .  A
C1433      C1434   1.411       .  A
C1433      N1438   1.437       .  S
C1434      H1439   1.083       .  S
N1435      H1455   1.046       .  S
N1435      H1456   1.046       .  S
C1437      C1440   1.400       .  A
C1437      C1444   1.405       .  A
N1438      H1453   1.046       .  S
N1438      H1454   1.045       .  S
C1440      C1441   1.406       .  A
C1440      H1445   1.084       .  S
C1441      C1442   1.425       .  A
C1441      N1446   1.430       .  S
C1442      C1443   1.414       .  A
C1443      C1444   1.405       .  A
C1443      H1447   1.082       .  S
C1444      N1448   1.438       .  S
N1446      H1449   1.045       .  S
N1446      H1450   1.044       .  S
N1448      H1451   1.046       .  S
N1448      H1452   1.045       .  S
C1457      C1458   1.412       .  A
C1457      C1462   1.408       .  A
C1458      C1459   1.406       .  A
C1458      N1463   1.431       .  S
C1459      C1460   1.405       .  A
C1459      H1464   1.084       .  S
C1460      C1465   1.500       .  S
C1460      C1461   1.415       .  A
C1461      C1462   1.412       .  A
C1461      N1466   1.438       .  S
C1462      H1467   1.083       .  S
N1463      H1483   1.046       .  S
N1463      H1484   1.045       .  S
C1465      C1468   1.405       .  A
C1465      C1472   1.414       .  A
N1466      H1481   1.046       .  S
N1466      H1482   1.046       .  S
C1468      C1469   1.408       .  A
C1468      H1473   1.084       .  S
C1469      C1470   1.416       .  A
C1469      N1474   1.432       .  S
C1470      C1471   1.407       .  A
C1471      C1472   1.409       .  A
C1471      H1475   1.083       .  S
C1472      N1476   1.438       .  S
N1474      H1477   1.045       .  S
N1474      H1478   1.046       .  S
N1476      H1479   1.045       .  S
N1476      H1480   1.046       .  S
C1485      C1486   1.415       .  A
C1485      C1490   1.405       .  A
C1486      C1487   1.410       .  A
C1486      N1491   1.437       .  S
C1487      C1488   1.403       .  A
C1487      H1492   1.084       .  S
C1488      C1493   1.487       .  S
C1488      C1489   1.410       .  A
C1489      C1490   1.404       .  A
C1489      N1494   1.438       .  S
C1490      H1495   1.084       .  S
N1491      H1511   1.045       .  S
N1491      H1512   1.046       .  S
C1493      C1496   1.404       .  A
C1493      C1500   1.420       .  A
N1494      H1509   1.046       .  S
N1494      H1510   1.046       .  S
C1496      C1497   1.403       .  A
C1496      H1501   1.084       .  S
C1497      C1498   1.410       .  A
C1497      N1502   1.438       .  S
C1498      C1499   1.402       .  A
C1499      C1500   1.407       .  A
C1499      H1503   1.084       .  S
C1500      N1504   1.439       .  S
N1502      H1505   1.046       .  S
N1502      H1506   1.045       .  S
N1504      H1507   1.046       .  S
N1504      H1508   1.042       .  S
C1513      C1514   1.419       .  A
C1513      C1518   1.406       .  A
C1514      C1515   1.404       .  A
C1514      N1519   1.432       .  S
C1515      C1516   1.404       .  A
C1515      H1520   1.084       .  S
C1516      C1521   1.497       .  S
C1516      C1517   1.413       .  A
C1517      C1518   1.409       .  A
C1517      N1522   1.438       .  S
C1518      H1523   1.084       .  S
N1519      H1539   1.045       .  S
N1519      H1540   1.044       .  S
C1521      C1524   1.402       .  A
C1521      C1528   1.412       .  A
N1522      H1537   1.046       .  S
N1522      H1538   1.046       .  S
C1524      C1525   1.409       .  A
C1524      H1529   1.084       .  S
C1525      C1526   1.422       .  A
C1525      N1530   1.438       .  S
C1526      C1527   1.410       .  A
C1527      C1528   1.411       .  A
C1527      H1531   1.083       .  S
C1528      N1532   1.438       .  S
N1530      H1533   1.046       .  S
N1530      H1534   1.045       .  S
N1532      H1535   1.046       .  S
N1532      H1536   1.046       .  S
C1541      C1542   1.414       .  A
C1541      C1546   1.409       .  A
C1542      C1543   1.402       .  A
C1542      N1547   1.432       .  S
C1543      C1544   1.400       .  A
C1543      H1548   1.084       .  S
C1544      C1549   1.485       .  S
C1544      C1545   1.409       .  A
C1545      C1546   1.411       .  A
C1545      N1550   1.437       .  S
C1546      H1551   1.083       .  S
N1547      H1567   1.046       .  S
N1547      H1568   1.046       .  S
C1549      C1552   1.402       .  A
C1549      C1556   1.405       .  A
N1550      H1565   1.046       .  S
N1550      H1566   1.046       .  S
C1552      C1553   1.407       .  A
C1552      H1557   1.084       .  S
C1553      C1554   1.424       .  A
C1553      N1558   1.431       .  S
C1554      C1555   1.413       .  A
C1555      C1556   1.403       .  A
C1555      H1559   1.082       .  S
C1556      N1560   1.439       .  S
N1558      H1561   1.045       .  S
N1558      H1562   1.045       .  S
N1560      H1563   1.046       .  S
N1560      H1564   1.046       .  S
C1569      C1570   1.418       .  A
C1569      C1574   1.407       .  A
C1570      C1571   1.406       .  A
C1570      N1575   1.432       .  S
C1571      C1572   1.404       .  A
C1571      H1576   1.084       .  S
C1572      C1577   1.487       .  S
C1572      C1573   1.408       .  A
C1573      C1574   1.405       .  A
C1573      N1578   1.438       .  S
C1574      H1579   1.084       .  S
N1575      H1595   1.046       .  S
N1575      H1596   1.045       .  S
C1577      C1580   1.403       .  A
C1577      C1584   1.407       .  A
N1578      H1593   1.046       .  S
N1578      H1594   1.046       .  S
C1580      C1581   1.411       .  A
C1580      H1585   1.084       .  S
C1581      C1582   1.418       .  A
C1581      N1586   1.437       .  S
C1582      C1583   1.408       .  A
C1583      C1584   1.406       .  A
C1583      H1587   1.084       .  S
C1584      N1588   1.438       .  S
N1586      H1589   1.046       .  S
N1586      H1590   1.045       .  S
N1588      H1591   1.046       .  S
N1588      H1592   1.046       .  S
C1597      C1598   1.421       .  A
C1597      C1602   1.403       .  A
C1598      C1599   1.405       .  A
C1598      N1603   1.440       .  S
C1599      C1600   1.404       .  A
C1599      H1604   1.084       .  S
C1600      C1605   1.493       .  S
C1600      C1601   1.420       .  A
C1601      C1602   1.405       .  A
C1601      N1606   1.439       .  S
C1602      H1607   1.084       .  S
N1603      H1623   1.042       .  S
N1603      H1624   1.046       .  S
C1605      C1608   1.402       .  A
C1605      C1612   1.409       .  A
N1606      H1621   1.046       .  S
N1606      H1622   1.042       .  S
C1608      C1609   1.409       .  A
C1608      H1613   1.084       .  S
C1609      C1610   1.422       .  A
C1609      N1614   1.438       .  S
C1610      C1611   1.411       .  A
C1611      C1612   1.409       .  A
C1611      H1615   1.083       .  S
C1612      N1616   1.438       .  S
N1614      H1617   1.046       .  S
N1614      H1618   1.045       .  S
N1616      H1619   1.046       .  S
N1616      H1620   1.046       .  S
C1625      C1626   1.418   1_565  A
C1625      C1630   1.408       .  A
C1626      C1627   1.408       .  A
C1626      N1631   1.438       .  S
C1627      C1628   1.400   1_545  A
C1627      H1632   1.084       .  S
C1628      C1633   1.483       .  S
C1628      C1629   1.408       .  A
C1629      C1630   1.408       .  A
C1629      N1634   1.438       .  S
C1630      H1635   1.083       .  S
N1631      H1651   1.046       .  S
N1631      H1652   1.046       .  S
C1633      C1636   1.400   1_565  A
C1633      C1640   1.409       .  A
N1634      H1649   1.046       .  S
N1634      H1650   1.045       .  S
C1636      C1637   1.407       .  A
C1636      H1641   1.084       .  S
C1637      C1638   1.415   1_545  A
C1637      N1642   1.437       .  S
C1638      C1639   1.406       .  A
C1639      C1640   1.409       .  A
C1639      H1643   1.083       .  S
C1640      N1644   1.437       .  S
N1642      H1645   1.046       .  S
N1642      H1646   1.046       .  S
N1644      H1647   1.046       .  S
N1644      H1648   1.045       .  S
C1653      C1654   1.416       .  A
C1653      C1658   1.407       .  A
C1654      C1655   1.406       .  A
C1654      N1659   1.438       .  S
C1655      C1656   1.401       .  A
C1655      H1660   1.084       .  S
C1656      C1661   1.484       .  S
C1656      C1657   1.409       .  A
C1657      C1658   1.408       .  A
C1657      N1662   1.437       .  S
C1658      H1663   1.083       .  S
N1659      H1679   1.046       .  S
N1659      H1680   1.046       .  S
C1661      C1664   1.401       .  A
C1661      C1668   1.409       .  A
N1662      H1677   1.046       .  S
N1662      H1678   1.046       .  S
C1664      C1665   1.404       .  A
C1664      H1669   1.084       .  S
C1665      C1666   1.414       .  A
C1665      N1670   1.432       .  S
C1666      C1667   1.407       .  A
C1667      C1668   1.408       .  A
C1667      H1671   1.083       .  S
C1668      N1672   1.437       .  S
N1670      H1673   1.046       .  S
N1670      H1674   1.046       .  S
N1672      H1675   1.046       .  S
N1672      H1676   1.046       .  S
C1681      C1682   1.416   1_455  A
C1681      C1686   1.407       .  A
C1682      C1683   1.406       .  A
C1682      N1687   1.437       .  S
C1683      C1684   1.401   1_655  A
C1683      H1688   1.084       .  S
C1684      C1689   1.485       .  S
C1684      C1685   1.409       .  A
C1685      C1686   1.406       .  A
C1685      N1690   1.438       .  S
C1686      H1691   1.083       .  S
N1687      H1707   1.046       .  S
N1687      H1708   1.046       .  S
C1689      C1692   1.400       .  A
C1689      C1696   1.408       .  A
N1690      H1705   1.046       .  S
N1690      H1706   1.046       .  S
C1692      C1693   1.406       .  A
C1692      H1697   1.084       .  S
C1693      C1694   1.421       .  A
C1693      N1698   1.438       .  S
C1694      C1695   1.410       .  A
C1695      C1696   1.407       .  A
C1695      H1699   1.083   1_455  S
C1696      N1700   1.438   1_455  S
N1698      H1701   1.046       .  S
N1698      H1702   1.046       .  S
N1700      H1703   1.046       .  S
N1700      H1704   1.046       .  S
C1709      C1710   1.417       .  A
C1709      C1714   1.409       .  A
C1710      C1711   1.412       .  A
C1710      N1715   1.436       .  S
C1711      C1712   1.406       .  A
C1711      H1716   1.083       .  S
C1712      C1717   1.499       .  S
C1712      C1713   1.411       .  A
C1713      C1714   1.407       .  A
C1713      N1718   1.438       .  S
C1714      H1719   1.081       .  S
N1715      H1735   1.046       .  S
N1715      H1736   1.046       .  S
C1717      C1720   1.407       .  A
C1717      C1724   1.413       .  A
N1718      H1733   1.046       .  S
N1718      H1734   1.046       .  S
C1720      C1721   1.410       .  A
C1720      H1725   1.083       .  S
C1721      C1722   1.413       .  A
C1721      N1726   1.437       .  S
C1722      C1723   1.406       .  A
C1723      C1724   1.407       .  A
C1723      H1727   1.084       .  S
C1724      N1728   1.438       .  S
N1726      H1729   1.046       .  S
N1726      H1730   1.045       .  S
N1728      H1731   1.046       .  S
N1728      H1732   1.046       .  S
C1737      C1738   1.416       .  A
C1737      C1742   1.409       .  A
C1738      C1739   1.407       .  A
C1738      N1743   1.437       .  S
C1739      C1740   1.402       .  A
C1739      H1744   1.084       .  S
C1740      C1745   1.486       .  S
C1740      C1741   1.409       .  A
C1741      C1742   1.405       .  A
C1741      N1746   1.438       .  S
C1742      H1747   1.083       .  S
N1743      H1763   1.046       .  S
N1743      H1764   1.046       .  S
C1745      C1748   1.402       .  A
C1745      C1752   1.410       .  A
N1746      H1761   1.046       .  S
N1746      H1762   1.046       .  S
C1748      C1749   1.406       .  A
C1748      H1753   1.084       .  S
C1749      C1750   1.414       .  A
C1749      N1754   1.438   1_655  S
C1750      C1751   1.406       .  A
C1751      C1752   1.407       .  A
C1751      H1755   1.084       .  S
C1752      N1756   1.438       .  S
N1754      H1757   1.046       .  S
N1754      H1758   1.046       .  S
N1756      H1759   1.046       .  S
N1756      H1760   1.046       .  S
C1765      C1766   1.414       .  A
C1765      C1770   1.406       .  A
C1766      C1767   1.407       .  A
C1766      N1771   1.437       .  S
C1767      C1768   1.401       .  A
C1767      H1772   1.084       .  S
C1768      C1773   1.482       .  S
C1768      C1769   1.408       .  A
C1769      C1770   1.406       .  A
C1769      N1774   1.438   1_556  S
C1770      H1775   1.084       .  S
N1771      H1791   1.046       .  S
N1771      H1792   1.046       .  S
C1773      C1776   1.401       .  A
C1773      C1780   1.408   1_556  A
N1774      H1789   1.046       .  S
N1774      H1790   1.046       .  S
C1776      C1777   1.406       .  A
C1776      H1781   1.084       .  S
C1777      C1778   1.414       .  A
C1777      N1782   1.437       .  S
C1778      C1779   1.406   1_556  A
C1779      C1780   1.406       .  A
C1779      H1783   1.083       .  S
C1780      N1784   1.438       .  S
N1782      H1785   1.046       .  S
N1782      H1786   1.046       .  S
N1784      H1787   1.046       .  S
N1784      H1788   1.046       .  S
C1793      C1794   1.413       .  A
C1793      C1798   1.406       .  A
C1794      C1795   1.410       .  A
C1794      N1799   1.437       .  S
C1795      C1796   1.403       .  A
C1795      H1800   1.084       .  S
C1796      C1801   1.483       .  S
C1796      C1797   1.407       .  A
C1797      C1798   1.405       .  A
C1797      N1802   1.438       .  S
C1798      H1803   1.083       .  S
N1799      H1819   1.046       .  S
N1799      H1820   1.046       .  S
C1801      C1804   1.399       .  A
C1801      C1808   1.408       .  A
N1802      H1817   1.046       .  S
N1802      H1818   1.046       .  S
C1804      C1805   1.407       .  A
C1804      H1809   1.084       .  S
C1805      C1806   1.419       .  A
C1805      N1810   1.438       .  S
C1806      C1807   1.407       .  A
C1807      C1808   1.409       .  A
C1807      H1811   1.083       .  S
C1808      N1812   1.437       .  S
N1810      H1813   1.046       .  S
N1810      H1814   1.046       .  S
N1812      H1815   1.046       .  S
N1812      H1816   1.046       .  S
C1821      C1822   1.417       .  A
C1821      C1826   1.405       .  A
C1822      C1823   1.404       .  A
C1822      N1827   1.438       .  S
C1823      C1824   1.401       .  A
C1823      H1828   1.084       .  S
C1824      C1829   1.483       .  S
C1824      C1825   1.410       .  A
C1825      C1826   1.404       .  A
C1825      N1830   1.438       .  S
C1826      H1831   1.083       .  S
N1827      H1847   1.046       .  S
N1827      H1848   1.046       .  S
C1829      C1832   1.401       .  A
C1829      C1836   1.410       .  A
N1830      H1845   1.046       .  S
N1830      H1846   1.046       .  S
C1832      C1833   1.404       .  A
C1832      H1837   1.084       .  S
C1833      C1834   1.415       .  A
C1833      N1838   1.438       .  S
C1834      C1835   1.406       .  A
C1835      C1836   1.405       .  A
C1835      H1839   1.083       .  S
C1836      N1840   1.438       .  S
N1838      H1841   1.046       .  S
N1838      H1842   1.046       .  S
N1840      H1843   1.046       .  S
N1840      H1844   1.046       .  S
C1849      C1850   1.415       .  A
C1849      C1854   1.406   1_565  A
C1850      C1851   1.407       .  A
C1850      N1855   1.438       .  S
C1851      C1852   1.403       .  A
C1851      H1856   1.084       .  S
C1852      C1857   1.480       .  S
C1852      C1853   1.407   1_565  A
C1853      C1854   1.401       .  A
C1853      N1858   1.438       .  S
C1854      H1859   1.083       .  S
N1855      H1875   1.046       .  S
N1855      H1876   1.046       .  S
C1857      C1860   1.404   1_565  A
C1857      C1864   1.409       .  A
N1858      H1873   1.046       .  S
N1858      H1874   1.046       .  S
C1860      C1861   1.405       .  A
C1860      H1865   1.084       .  S
C1861      C1862   1.410   1_545  A
C1861      N1866   1.438       .  S
C1862      C1863   1.402       .  A
C1863      C1864   1.403       .  A
C1863      H1867   1.084       .  S
C1864      N1868   1.438       .  S
N1866      H1869   1.046       .  S
N1866      H1870   1.046       .  S
N1868      H1871   1.046       .  S
N1868      H1872   1.046       .  S
C1877      C1878   1.416       .  A
C1877      C1882   1.407       .  A
C1878      C1879   1.406       .  A
C1878      N1883   1.438       .  S
C1879      C1880   1.403       .  A
C1879      H1884   1.084       .  S
C1880      C1885   1.491       .  S
C1880      C1881   1.412       .  A
C1881      C1882   1.407       .  A
C1881      N1886   1.438       .  S
C1882      H1887   1.083       .  S
N1883      H1903   1.046       .  S
N1883      H1904   1.046       .  S
C1885      C1888   1.402       .  A
C1885      C1892   1.413       .  A
N1886      H1901   1.046       .  S
N1886      H1902   1.046       .  S
C1888      C1889   1.405       .  A
C1888      H1893   1.084       .  S
C1889      C1890   1.416       .  A
C1889      N1894   1.438       .  S
C1890      C1891   1.406       .  A
C1891      C1892   1.408       .  A
C1891      H1895   1.084       .  S
C1892      N1896   1.438       .  S
N1894      H1897   1.046       .  S
N1894      H1898   1.046       .  S
N1896      H1899   1.046       .  S
N1896      H1900   1.046       .  S
C1905      C1906   1.420   1_556  A
C1905      C1910   1.410       .  A
C1906      C1907   1.405       .  A
C1906      N1911   1.438       .  S
C1907      C1908   1.399   1_554  A
C1907      H1912   1.084       .  S
C1908      C1913   1.482       .  S
C1908      C1909   1.407       .  A
C1909      C1910   1.406       .  A
C1909      N1914   1.438       .  S
C1910      H1915   1.083       .  S
N1911      H1931   1.046       .  S
N1911      H1932   1.046       .  S
C1913      C1916   1.401       .  A
C1913      C1920   1.409   1_556  A
N1914      H1929   1.046       .  S
N1914      H1930   1.046       .  S
C1916      C1917   1.405       .  A
C1916      H1921   1.084       .  S
C1917      C1918   1.415       .  A
C1917      N1922   1.437       .  S
C1918      C1919   1.406   1_556  A
C1919      C1920   1.405       .  A
C1919      H1923   1.083       .  S
C1920      N1924   1.438       .  S
N1922      H1925   1.046       .  S
N1922      H1926   1.046       .  S
N1924      H1927   1.046       .  S
N1924      H1928   1.046       .  S
C1933      C1934   1.414       .  A
C1933      C1938   1.408       .  A
C1934      C1935   1.399       .  A
C1934      N1939   1.431       .  S
C1935      C1936   1.400       .  A
C1935      H1940   1.084       .  S
C1936      C1941   1.483       .  S
C1936      C1937   1.410       .  A
C1937      C1938   1.407       .  A
C1937      N1942   1.438       .  S
C1938      H1943   1.083       .  S
N1939      H1959   1.046       .  S
N1939      H1960   1.046       .  S
C1941      C1944   1.402       .  A
C1941      C1948   1.410       .  A
N1942      H1957   1.046       .  S
N1942      H1958   1.046       .  S
C1944      C1945   1.406       .  A
C1944      H1949   1.084       .  S
C1945      C1946   1.416       .  A
C1945      N1950   1.438       .  S
C1946      C1947   1.404       .  A
C1947      C1948   1.403       .  A
C1947      H1951   1.084       .  S
C1948      N1952   1.438       .  S
N1950      H1953   1.046       .  S
N1950      H1954   1.046       .  S
N1952      H1955   1.046       .  S
N1952      H1956   1.046       .  S
C1961      C1962   1.412       .  A
C1961      C1966   1.404       .  A
C1962      C1963   1.407       .  A
C1962      N1967   1.438       .  S
C1963      C1964   1.402       .  A
C1963      H1968   1.084       .  S
C1964      C1969   1.479       .  S
C1964      C1965   1.408       .  A
C1965      C1966   1.405       .  A
C1965      N1970   1.438       .  S
C1966      H1971   1.084       .  S
N1967      H1987   1.046       .  S
N1967      H1988   1.046       .  S
C1969      C1972   1.401       .  A
C1969      C1976   1.407       .  A
N1970      H1985   1.046       .  S
N1970      H1986   1.045       .  S
C1972      C1973   1.407       .  A
C1972      H1977   1.084       .  S
C1973      C1974   1.414       .  A
C1973      N1978   1.438       .  S
C1974      C1975   1.406       .  A
C1975      C1976   1.406       .  A
C1975      H1979   1.084       .  S
C1976      N1980   1.438       .  S
N1978      H1981   1.046       .  S
N1978      H1982   1.046       .  S
N1980      H1983   1.046       .  S
N1980      H1984   1.045       .  S
C1989      C1990   1.414   1_455  A
C1989      C1994   1.405       .  A
C1990      C1991   1.405       .  A
C1990      N1995   1.437       .  S
C1991      C1992   1.399   1_655  A
C1991      H1996   1.084       .  S
C1992      C1997   1.472       .  S
C1992      C1993   1.406       .  A
C1993      C1994   1.401       .  A
C1993      N1998   1.438       .  S
C1994      H1999   1.083       .  S
N1995      H2015   1.046       .  S
N1995      H2016   1.046       .  S
C1997      C2000   1.398   1_455  A
C1997      C2004   1.406       .  A
N1998      H2013   1.046       .  S
N1998      H2014   1.045       .  S
C2000      C2001   1.404       .  A
C2000      H2005   1.084       .  S
C2001      C2002   1.415   1_655  A
C2001      N2006   1.437       .  S
C2002      C2003   1.405       .  A
C2003      C2004   1.403       .  A
C2003      H2007   1.084       .  S
C2004      N2008   1.438       .  S
N2006      H2009   1.046       .  S
N2006      H2010   1.046   1_655  S
N2008      H2011   1.046       .  S
N2008      H2012   1.045       .  S
C2017      C2018   1.417       .  A
C2017      C2022   1.408       .  A
C2018      C2019   1.410       .  A
C2018      N2023   1.437       .  S
C2019      C2020   1.402       .  A
C2019      H2024   1.084       .  S
C2020      C2025   1.482       .  S
C2020      C2021   1.406       .  A
C2021      C2022   1.404       .  A
C2021      N2026   1.438       .  S
C2022      H2027   1.083       .  S
N2023      H2043   1.045       .  S
N2023      H2044   1.046       .  S
C2025      C2028   1.399       .  A
C2025      C2032   1.409       .  A
N2026      H2041   1.046       .  S
N2026      H2042   1.046       .  S
C2028      C2029   1.405       .  A
C2028      H2033   1.084       .  S
C2029      C2030   1.418       .  A
C2029      N2034   1.438       .  S
C2030      C2031   1.406       .  A
C2031      C2032   1.409       .  A
C2031      H2035   1.084       .  S
C2032      N2036   1.437       .  S
N2034      H2037   1.046       .  S
N2034      H2038   1.046       .  S
N2036      H2039   1.046       .  S
N2036      H2040   1.046       .  S
C2045      C2046   1.420       .  A
C2045      C2050   1.408       .  A
C2046      C2047   1.406       .  A
C2046      N2051   1.438       .  S
C2047      C2048   1.402       .  A
C2047      H2052   1.083       .  S
C2048      C2053   1.496       .  S
C2048      C2049   1.414       .  A
C2049      C2050   1.410       .  A
C2049      N2054   1.438       .  S
C2050      H2055   1.083       .  S
N2051      H2071   1.046       .  S
N2051      H2072   1.046       .  S
C2053      C2056   1.403       .  A
C2053      C2060   1.415       .  A
N2054      H2069   1.046       .  S
N2054      H2070   1.046       .  S
C2056      C2057   1.406       .  A
C2056      H2061   1.084       .  S
C2057      C2058   1.416       .  A
C2057      N2062   1.438       .  S
C2058      C2059   1.404       .  A
C2059      C2060   1.410       .  A
C2059      H2063   1.083       .  S
C2060      N2064   1.437       .  S
N2062      H2065   1.046       .  S
N2062      H2066   1.046       .  S
N2064      H2067   1.046       .  S
N2064      H2068   1.046       .  S
C2073      C2074   1.416       .  A
C2073      C2078   1.407       .  A
C2074      C2075   1.410       .  A
C2074      N2079   1.438       .  S
C2075      C2076   1.405       .  A
C2075      H2080   1.083       .  S
C2076      C2081   1.499       .  S
C2076      C2077   1.414       .  A
C2077      C2078   1.411       .  A
C2077      N2082   1.438       .  S
C2078      H2083   1.083       .  S
N2079      H2099   1.046       .  S
N2079      H2100   1.046       .  S
C2081      C2084   1.405       .  A
C2081      C2088   1.414       .  A
N2082      H2097   1.046       .  S
N2082      H2098   1.045       .  S
C2084      C2085   1.410       .  A
C2084      H2089   1.083       .  S
C2085      C2086   1.417       .  A
C2085      N2090   1.438       .  S
C2086      C2087   1.407       .  A
C2087      C2088   1.410       .  A
C2087      H2091   1.083       .  S
C2088      N2092   1.438       .  S
N2090      H2093   1.046       .  S
N2090      H2094   1.046       .  S
N2092      H2095   1.046       .  S
N2092      H2096   1.046       .  S
C2101      C2102   1.417       .  A
C2101      C2106   1.407       .  A
C2102      C2103   1.404       .  A
C2102      N2107   1.438       .  S
C2103      C2104   1.399       .  A
C2103      H2108   1.084       .  S
C2104      C2109   1.481       .  S
C2104      C2105   1.409       .  A
C2105      C2106   1.410       .  A
C2105      N2110   1.437       .  S
C2106      H2111   1.083       .  S
N2107      H2127   1.046       .  S
N2107      H2128   1.046       .  S
C2109      C2112   1.402       .  A
C2109      C2116   1.406       .  A
N2110      H2125   1.046       .  S
N2110      H2126   1.045       .  S
C2112      C2113   1.406       .  A
C2112      H2117   1.084       .  S
C2113      C2114   1.421       .  A
C2113      N2118   1.432       .  S
C2114      C2115   1.409       .  A
C2115      C2116   1.402       .  A
C2115      H2119   1.083       .  S
C2116      N2120   1.439       .  S
N2118      H2121   1.045       .  S
N2118      H2122   1.045       .  S
N2120      H2123   1.046       .  S
N2120      H2124   1.045       .  S
C2129      C2130   1.417       .  A
C2129      C2134   1.407       .  A
C2130      C2131   1.409       .  A
C2130      N2135   1.438       .  S
C2131      C2132   1.404       .  A
C2131      H2136   1.084       .  S
C2132      C2137   1.492       .  S
C2132      C2133   1.410       .  A
C2133      C2134   1.407       .  A
C2133      N2138   1.438       .  S
C2134      H2139   1.083       .  S
N2135      H2155   1.045       .  S
N2135      H2156   1.046       .  S
C2137      C2140   1.405       .  A
C2137      C2144   1.410       .  A
N2138      H2153   1.046       .  S
N2138      H2154   1.046       .  S
C2140      C2141   1.407       .  A
C2140      H2145   1.084       .  S
C2141      C2142   1.415       .  A
C2141      N2146   1.432       .  S
C2142      C2143   1.410       .  A
C2143      C2144   1.406       .  A
C2143      H2147   1.083       .  S
C2144      N2148   1.438       .  S
N2146      H2149   1.046       .  S
N2146      H2150   1.046       .  S
N2148      H2151   1.046       .  S
N2148      H2152   1.046       .  S
C2157      C2158   1.414       .  A
C2157      C2162   1.405       .  A
C2158      C2159   1.406       .  A
C2158      N2163   1.436       .  S
C2159      C2160   1.403       .  A
C2159      H2164   1.084       .  S
C2160      C2165   1.490       .  S
C2160      C2161   1.412       .  A
C2161      C2162   1.408       .  A
C2161      N2166   1.438       .  S
C2162      H2167   1.084       .  S
N2163      H2183   1.046       .  S
N2163      H2184   1.046       .  S
C2165      C2168   1.403       .  A
C2165      C2172   1.413       .  A
N2166      H2181   1.046       .  S
N2166      H2182   1.046       .  S
C2168      C2169   1.406       .  A
C2168      H2173   1.084       .  S
C2169      C2170   1.414       .  A
C2169      N2174   1.438       .  S
C2170      C2171   1.404       .  A
C2171      C2172   1.408       .  A
C2171      H2175   1.083       .  S
C2172      N2176   1.438       .  S
N2174      H2177   1.046       .  S
N2174      H2178   1.046       .  S
N2176      H2179   1.046       .  S
N2176      H2180   1.046       .  S
C2185      C2186   1.415       .  A
C2185      C2190   1.405       .  A
C2186      C2187   1.406       .  A
C2186      N2191   1.438       .  S
C2187      C2188   1.401       .  A
C2187      H2192   1.084       .  S
C2188      C2193   1.490       .  S
C2188      C2189   1.412       .  A
C2189      C2190   1.411       .  A
C2189      N2194   1.438       .  S
C2190      H2195   1.083       .  S
N2191      H2211   1.046       .  S
N2191      H2212   1.046       .  S
C2193      C2196   1.401       .  A
C2193      C2200   1.409       .  A
N2194      H2209   1.046       .  S
N2194      H2210   1.046       .  S
C2196      C2197   1.409       .  A
C2196      H2201   1.084       .  S
C2197      C2198   1.423       .  A
C2197      N2202   1.438       .  S
C2198      C2199   1.410       .  A
C2199      C2200   1.407       .  A
C2199      H2203   1.083       .  S
C2200      N2204   1.438       .  S
N2202      H2205   1.046       .  S
N2202      H2206   1.046       .  S
N2204      H2207   1.046       .  S
N2204      H2208   1.046       .  S
C2213      C2214   1.414       .  A
C2213      C2218   1.406       .  A
C2214      C2215   1.405       .  A
C2214      N2219   1.438       .  S
C2215      C2216   1.400       .  A
C2215      H2220   1.084       .  S
C2216      C2221   1.482       .  S
C2216      C2217   1.408       .  A
C2217      C2218   1.409       .  A
C2217      N2222   1.437       .  S
C2218      H2223   1.084       .  S
N2219      H2239   1.046       .  S
N2219      H2240   1.046       .  S
C2221      C2224   1.400       .  A
C2221      C2228   1.408       .  A
N2222      H2237   1.046       .  S
N2222      H2238   1.046       .  S
C2224      C2225   1.405       .  A
C2224      H2229   1.084       .  S
C2225      C2226   1.415       .  A
C2225      N2230   1.438       .  S
C2226      C2227   1.408       .  A
C2227      C2228   1.408       .  A
C2227      H2231   1.083       .  S
C2228      N2232   1.437       .  S
N2230      H2233   1.046       .  S
N2230      H2234   1.045       .  S
N2232      H2235   1.046       .  S
N2232      H2236   1.046       .  S
C2241      C2242   1.416       .  A
C2241      C2246   1.406       .  A
C2242      C2243   1.408       .  A
C2242      N2247   1.438       .  S
C2243      C2244   1.405       .  A
C2243      H2248   1.084       .  S
C2244      C2249   1.492       .  S
C2244      C2245   1.419       .  A
C2245      C2246   1.404       .  A
C2245      N2250   1.440       .  S
C2246      H2251   1.084       .  S
N2247      H2267   1.045       .  S
N2247      H2268   1.046       .  S
C2249      C2252   1.406       .  A
C2249      C2256   1.411       .  A
N2250      H2265   1.046       .  S
N2250      H2266   1.042       .  S
C2252      C2253   1.409       .  A
C2252      H2257   1.084       .  S
C2253      C2254   1.414       .  A
C2253      N2258   1.438       .  S
C2254      C2255   1.406       .  A
C2255      C2256   1.405       .  A
C2255      H2259   1.083       .  S
C2256      N2260   1.438       .  S
N2258      H2261   1.046       .  S
N2258      H2262   1.046       .  S
N2260      H2263   1.046       .  S
N2260      H2264   1.046       .  S
C2269      C2270   1.413       .  A
C2269      C2274   1.404       .  A
C2270      C2271   1.410       .  A
C2270      N2275   1.437       .  S
C2271      C2272   1.404       .  A
C2271      H2276   1.083       .  S
C2272      C2277   1.488       .  S
C2272      C2273   1.411       .  A
C2273      C2274   1.404       .  A
C2273      N2278   1.438       .  S
C2274      H2279   1.084       .  S
N2275      H2295   1.045       .  S
N2275      H2296   1.046       .  S
C2277      C2280   1.399       .  A
C2277      C2284   1.409       .  A
N2278      H2293   1.046       .  S
N2278      H2294   1.046       .  S
C2280      C2281   1.403       .  A
C2280      H2285   1.084       .  S
C2281      C2282   1.420       .  A
C2281      N2286   1.436       .  S
C2282      C2283   1.411       .  A
C2283      C2284   1.412       .  A
C2283      H2287   1.083       .  S
C2284      N2288   1.437       .  S
N2286      H2289   1.046       .  S
N2286      H2290   1.045       .  S
N2288      H2291   1.046       .  S
N2288      H2292   1.046       .  S
C2297      C2298   1.415       .  A
C2297      C2302   1.406       .  A
C2298      C2299   1.407       .  A
C2298      N2303   1.438       .  S
C2299      C2300   1.401       .  A
C2299      H2304   1.084       .  S
C2300      C2305   1.488       .  S
C2300      C2301   1.410       .  A
C2301      C2302   1.411       .  A
C2301      N2306   1.437       .  S
C2302      H2307   1.084       .  S
N2303      H2323   1.046       .  S
N2303      H2324   1.046       .  S
C2305      C2308   1.401       .  A
C2305      C2312   1.409       .  A
N2306      H2321   1.046       .  S
N2306      H2322   1.046       .  S
C2308      C2309   1.408       .  A
C2308      H2313   1.084       .  S
C2309      C2310   1.418       .  A
C2309      N2314   1.438       .  S
C2310      C2311   1.407       .  A
C2311      C2312   1.411       .  A
C2311      H2315   1.083       .  S
C2312      N2316   1.437       .  S
N2314      H2317   1.046       .  S
N2314      H2318   1.046       .  S
N2316      H2319   1.046       .  S
N2316      H2320   1.046       .  S
C2325      C2326   1.416       .  A
C2325      C2330   1.407       .  A
C2326      C2327   1.412       .  A
C2326      N2331   1.438       .  S
C2327      C2328   1.406       .  A
C2327      H2332   1.083       .  S
C2328      C2333   1.499       .  S
C2328      C2329   1.413       .  A
C2329      C2330   1.408       .  A
C2329      N2334   1.438       .  S
C2330      H2335   1.083       .  S
N2331      H2351   1.045       .  S
N2331      H2352   1.046       .  S
C2333      C2336   1.405       .  A
C2333      C2340   1.413       .  A
N2334      H2349   1.046       .  S
N2334      H2350   1.046       .  S
C2336      C2337   1.406       .  A
C2336      H2341   1.084       .  S
C2337      C2338   1.417       .  A
C2337      N2342   1.432       .  S
C2338      C2339   1.410       .  A
C2339      C2340   1.410       .  A
C2339      H2343   1.083       .  S
C2340      N2344   1.438       .  S
N2342      H2345   1.046       .  S
N2342      H2346   1.045       .  S
N2344      H2347   1.046       .  S
N2344      H2348   1.046       .  S
C2353      C2354   1.418       .  A
C2353      C2358   1.407       .  A
C2354      C2355   1.407       .  A
C2354      N2359   1.438       .  S
C2355      C2356   1.400       .  A
C2355      H2360   1.084       .  S
C2356      C2361   1.489       .  S
C2356      C2357   1.411       .  A
C2357      C2358   1.411       .  A
C2357      N2362   1.437       .  S
C2358      H2363   1.083       .  S
N2359      H2379   1.046       .  S
N2359      H2380   1.046       .  S
C2361      C2364   1.404       .  A
C2361      C2368   1.410       .  A
N2362      H2377   1.046       .  S
N2362      H2378   1.046       .  S
C2364      C2365   1.410       .  A
C2364      H2369   1.084       .  S
C2365      C2366   1.412       .  A
C2365      N2370   1.437       .  S
C2366      C2367   1.406       .  A
C2367      C2368   1.408       .  A
C2367      H2371   1.084       .  S
C2368      N2372   1.438       .  S
N2370      H2373   1.046       .  S
N2370      H2374   1.046       .  S
N2372      H2375   1.046       .  S
N2372      H2376   1.046       .  S
C2381      C2382   1.412       .  A
C2381      C2386   1.402       .  A
C2382      C2383   1.408       .  A
C2382      N2387   1.438       .  S
C2383      C2384   1.405       .  A
C2383      H2388   1.083       .  S
C2384      C2389   1.495       .  S
C2384      C2385   1.415       .  A
C2385      C2386   1.408       .  A
C2385      N2390   1.438       .  S
C2386      H2391   1.084       .  S
N2387      H2407   1.046       .  S
N2387      H2408   1.046       .  S
C2389      C2392   1.401       .  A
C2389      C2396   1.415       .  A
N2390      H2405   1.046       .  S
N2390      H2406   1.046       .  S
C2392      C2393   1.405       .  A
C2392      H2397   1.083       .  S
C2393      C2394   1.417       .  A
C2393      N2398   1.438       .  S
C2394      C2395   1.405       .  A
C2395      C2396   1.412       .  A
C2395      H2399   1.083       .  S
C2396      N2400   1.437       .  S
N2398      H2401   1.046       .  S
N2398      H2402   1.046       .  S
N2400      H2403   1.046       .  S
N2400      H2404   1.046       .  S
C2409      C2410   1.420       .  A
C2409      C2414   1.406       .  A
C2410      C2411   1.403       .  A
C2410      N2415   1.431       .  S
C2411      C2412   1.403       .  A
C2411      H2416   1.084       .  S
C2412      C2417   1.493       .  S
C2412      C2413   1.412       .  A
C2413      C2414   1.408       .  A
C2413      N2418   1.438       .  S
C2414      H2419   1.084       .  S
N2415      H2435   1.044       .  S
N2415      H2436   1.045       .  S
C2417      C2420   1.402       .  A
C2417      C2424   1.411       .  A
N2418      H2433   1.046       .  S
N2418      H2434   1.046       .  S
C2420      C2421   1.400       .  A
C2420      H2425   1.084       .  S
C2421      C2422   1.422       .  A
C2421      N2426   1.432       .  S
C2422      C2423   1.410       .  A
C2423      C2424   1.411       .  A
C2423      H2427   1.083       .  S
C2424      N2428   1.438       .  S
N2426      H2429   1.045       .  S
N2426      H2430   1.044       .  S
N2428      H2431   1.046       .  S
N2428      H2432   1.046       .  S
C2437      C2438   1.417       .  A
C2437      C2442   1.408       .  A
C2438      C2439   1.403       .  A
C2438      N2443   1.438       .  S
C2439      C2440   1.400       .  A
C2439      H2444   1.084       .  S
C2440      C2445   1.484       .  S
C2440      C2441   1.409       .  A
C2441      C2442   1.410       .  A
C2441      N2446   1.437       .  S
C2442      H2447   1.083       .  S
N2443      H2463   1.046       .  S
N2443      H2464   1.046       .  S
C2445      C2448   1.402       .  A
C2445      C2452   1.406       .  A
N2446      H2461   1.046       .  S
N2446      H2462   1.046       .  S
C2448      C2449   1.414       .  A
C2448      H2453   1.084       .  S
C2449      C2450   1.422       .  A
C2449      N2454   1.437       .  S
C2450      C2451   1.410       .  A
C2451      C2452   1.401       .  A
C2451      H2455   1.082       .  S
C2452      N2456   1.439       .  S
N2454      H2457   1.046       .  S
N2454      H2458   1.046       .  S
N2456      H2459   1.046       .  S
N2456      H2460   1.046       .  S
C2465      C2466   1.416       .  A
C2465      C2470   1.407       .  A
C2466      C2467   1.408       .  A
C2466      N2471   1.438       .  S
C2467      C2468   1.403       .  A
C2467      H2472   1.084       .  S
C2468      C2473   1.489       .  S
C2468      C2469   1.410       .  A
C2469      C2470   1.407       .  A
C2469      N2474   1.438       .  S
C2470      H2475   1.083       .  S
N2471      H2491   1.046       .  S
N2471      H2492   1.046       .  S
C2473      C2476   1.404       .  A
C2473      C2480   1.419       .  A
N2474      H2489   1.046       .  S
N2474      H2490   1.046       .  S
C2476      C2477   1.405       .  A
C2476      H2481   1.084       .  S
C2477      C2478   1.413       .  A
C2477      N2482   1.432       .  S
C2478      C2479   1.406       .  A
C2479      C2480   1.404       .  A
C2479      H2483   1.084       .  S
C2480      N2484   1.439       .  S
N2482      H2485   1.046       .  S
N2482      H2486   1.046       .  S
N2484      H2487   1.046       .  S
N2484      H2488   1.042       .  S
C2493      C2494   1.417       .  A
C2493      C2498   1.406       .  A
C2494      C2495   1.405       .  A
C2494      N2499   1.437       .  S
C2495      C2496   1.401       .  A
C2495      H2500   1.084       .  S
C2496      C2501   1.490       .  S
C2496      C2497   1.413       .  A
C2497      C2498   1.409       .  A
C2497      N2502   1.438       .  S
C2498      H2503   1.083       .  S
N2499      H2519   1.046       .  S
N2499      H2520   1.046       .  S
C2501      C2504   1.402       .  A
C2501      C2508   1.414       .  A
N2502      H2517   1.046       .  S
N2502      H2518   1.046       .  S
C2504      C2505   1.405       .  A
C2504      H2509   1.084       .  S
C2505      C2506   1.414       .  A
C2505      N2510   1.438       .  S
C2506      C2507   1.403       .  A
C2507      C2508   1.410       .  A
C2507      H2511   1.084       .  S
C2508      N2512   1.437       .  S
N2510      H2513   1.046       .  S
N2510      H2514   1.046       .  S
N2512      H2515   1.046       .  S
N2512      H2516   1.046       .  S
C2521      C2522   1.419       .  A
C2521      C2526   1.413       .  A
C2522      C2523   1.410       .  A
C2522      N2527   1.435       .  S
C2523      C2524   1.400       .  A
C2523      H2528   1.084       .  S
C2524      C2529   1.479       .  S
C2524      C2525   1.404       .  A
C2525      C2526   1.402       .  A
C2525      N2530   1.439       .  S
C2526      H2531   1.083       .  S
N2527      H2547   1.046       .  S
N2527      H2548   1.046       .  S
C2529      C2532   1.402       .  A
C2529      C2536   1.408       .  A
N2530      H2545   1.046       .  S
N2530      H2546   1.046       .  S
C2532      C2533   1.400       .  A
C2532      H2537   1.084       .  S
C2533      C2534   1.414       .  A
C2533      N2538   1.431       .  S
C2534      C2535   1.403       .  A
C2535      C2536   1.405       .  A
C2535      H2539   1.084       .  S
C2536      N2540   1.438       .  S
N2538      H2541   1.043       .  S
N2538      H2542   1.046       .  S
N2540      H2543   1.046       .  S
N2540      H2544   1.046       .  S
C2549      C2550   1.416       .  A
C2549      C2554   1.408       .  A
C2550      C2551   1.408       .  A
C2550      N2555   1.438       .  S
C2551      C2552   1.404       .  A
C2551      H2556   1.084       .  S
C2552      C2557   1.489       .  S
C2552      C2553   1.409       .  A
C2553      C2554   1.406       .  A
C2553      N2558   1.438       .  S
C2554      H2559   1.083       .  S
N2555      H2575   1.045       .  S
N2555      H2576   1.046       .  S
C2557      C2560   1.405       .  A
C2557      C2564   1.410       .  A
N2558      H2573   1.046       .  S
N2558      H2574   1.046       .  S
C2560      C2561   1.408       .  A
C2560      H2565   1.084       .  S
C2561      C2562   1.412       .  A
C2561      N2566   1.437       .  S
C2562      C2563   1.405       .  A
C2563      C2564   1.406       .  A
C2563      H2567   1.084       .  S
C2564      N2568   1.438       .  S
N2566      H2569   1.046       .  S
N2566      H2570   1.046       .  S
N2568      H2571   1.046       .  S
N2568      H2572   1.046       .  S
C2577      C2578   1.416       .  A
C2577      C2582   1.406       .  A
C2578      C2579   1.407       .  A
C2578      N2583   1.438       .  S
C2579      C2580   1.401       .  A
C2579      H2584   1.084       .  S
C2580      C2585   1.489       .  S
C2580      C2581   1.418       .  A
C2581      C2582   1.407       .  A
C2581      N2586   1.439       .  S
C2582      H2587   1.084       .  S
N2583      H2603   1.046       .  S
N2583      H2604   1.046       .  S
C2585      C2588   1.402       .  A
C2585      C2592   1.417       .  A
N2586      H2601   1.046       .  S
N2586      H2602   1.043       .  S
C2588      C2589   1.409       .  A
C2588      H2593   1.084       .  S
C2589      C2590   1.415       .  A
C2589      N2594   1.436       .  S
C2590      C2591   1.407       .  A
C2591      C2592   1.406       .  A
C2591      H2595   1.084       .  S
C2592      N2596   1.439       .  S
N2594      H2597   1.046       .  S
N2594      H2598   1.043       .  S
N2596      H2599   1.046       .  S
N2596      H2600   1.043       .  S
C2605      C2606   1.414       .  A
C2605      C2610   1.405       .  A
C2606      C2607   1.403       .  A
C2606      N2611   1.439       .  S
C2607      C2608   1.402       .  A
C2607      H2612   1.084       .  S
C2608      C2613   1.492       .  S
C2608      C2609   1.420       .  A
C2609      C2610   1.410       .  A
C2609      N2614   1.438       .  S
C2610      H2615   1.084       .  S
N2611      H2631   1.046       .  S
N2611      H2632   1.046       .  S
C2613      C2616   1.405       .  A
C2613      C2620   1.412       .  A
N2614      H2629   1.046       .  S
N2614      H2630   1.042       .  S
C2616      C2617   1.412       .  A
C2616      H2621   1.084       .  S
C2617      C2618   1.412       .  A
C2617      N2622   1.437       .  S
C2618      C2619   1.402       .  A
C2619      C2620   1.405       .  A
C2619      H2623   1.084       .  S
C2620      N2624   1.438       .  S
N2622      H2625   1.046       .  S
N2622      H2626   1.045       .  S
N2624      H2627   1.046       .  S
N2624      H2628   1.046       .  S
C2633      C2634   1.414       .  A
C2633      C2638   1.404       .  A
C2634      C2635   1.405       .  A
C2634      N2639   1.438       .  S
C2635      C2636   1.403       .  A
C2635      H2640   1.084       .  S
C2636      C2641   1.493       .  S
C2636      C2637   1.414       .  A
C2637      C2638   1.410       .  A
C2637      N2642   1.437       .  S
C2638      H2643   1.083       .  S
N2639      H2659   1.046       .  S
N2639      H2660   1.046       .  S
C2641      C2644   1.404       .  A
C2641      C2648   1.411       .  A
N2642      H2657   1.046       .  S
N2642      H2658   1.046       .  S
C2644      C2645   1.412       .  A
C2644      H2649   1.083       .  S
C2645      C2646   1.417       .  A
C2645      N2650   1.437       .  S
C2646      C2647   1.409       .  A
C2647      C2648   1.404       .  A
C2647      H2651   1.083       .  S
C2648      N2652   1.439       .  S
N2650      H2653   1.046       .  S
N2650      H2654   1.046       .  S
N2652      H2655   1.046       .  S
N2652      H2656   1.046       .  S
C2661      C2662   1.417       .  A
C2661      C2666   1.406       .  A
C2662      C2663   1.405       .  A
C2662      N2667   1.432       .  S
C2663      C2664   1.403       .  A
C2663      H2668   1.084       .  S
C2664      C2669   1.489       .  S
C2664      C2665   1.410       .  A
C2665      C2666   1.410       .  A
C2665      N2670   1.438       .  S
C2666      H2671   1.084       .  S
N2667      H2687   1.046       .  S
N2667      H2688   1.045       .  S
C2669      C2672   1.402       .  A
C2669      C2676   1.410       .  A
N2670      H2685   1.046       .  S
N2670      H2686   1.045       .  S
C2672      C2673   1.405       .  A
C2672      H2677   1.084       .  S
C2673      C2674   1.418       .  A
C2673      N2678   1.432       .  S
C2674      C2675   1.408       .  A
C2675      C2676   1.410       .  A
C2675      H2679   1.084       .  S
C2676      N2680   1.438       .  S
N2678      H2681   1.044       .  S
N2678      H2682   1.046       .  S
N2680      H2683   1.046       .  S
N2680      H2684   1.045       .  S
C2689      C2690   1.418       .  A
C2689      C2694   1.406       .  A
C2690      C2691   1.405       .  A
C2690      N2695   1.438       .  S
C2691      C2692   1.398       .  A
C2691      H2696   1.084       .  S
C2692      C2697   1.479       .  S
C2692      C2693   1.408       .  A
C2693      C2694   1.408       .  A
C2693      N2698   1.437       .  S
C2694      H2699   1.083       .  S
N2695      H2715   1.046       .  S
N2695      H2716   1.046       .  S
C2697      C2700   1.401       .  A
C2697      C2704   1.407       .  A
N2698      H2713   1.046       .  S
N2698      H2714   1.045       .  S
C2700      C2701   1.407       .  A
C2700      H2705   1.084       .  S
C2701      C2702   1.412       .  A
C2701      N2706   1.437       .  S
C2702      C2703   1.406       .  A
C2703      C2704   1.405       .  A
C2703      H2707   1.083       .  S
C2704      N2708   1.438       .  S
N2706      H2709   1.046       .  S
N2706      H2710   1.046       .  S
N2708      H2711   1.046       .  S
N2708      H2712   1.045       .  S
C2717      C2718   1.420       .  A
C2717      C2722   1.407       .  A
C2718      C2719   1.409       .  A
C2718      N2723   1.438       .  S
C2719      C2720   1.402       .  A
C2719      H2724   1.084       .  S
C2720      C2725   1.494       .  S
C2720      C2721   1.412       .  A
C2721      C2722   1.409       .  A
C2721      N2726   1.438       .  S
C2722      H2727   1.083       .  S
N2723      H2743   1.046       .  S
N2723      H2744   1.046       .  S
C2725      C2728   1.403       .  A
C2725      C2732   1.414       .  A
N2726      H2741   1.046       .  S
N2726      H2742   1.046       .  S
C2728      C2729   1.407       .  A
C2728      H2733   1.084       .  S
C2729      C2730   1.413       .  A
C2729      N2734   1.438       .  S
C2730      C2731   1.405       .  A
C2731      C2732   1.412       .  A
C2731      H2735   1.083       .  S
C2732      N2736   1.437       .  S
N2734      H2737   1.046       .  S
N2734      H2738   1.046       .  S
N2736      H2739   1.046       .  S
N2736      H2740   1.046       .  S
C2745      C2746   1.416       .  A
C2745      C2750   1.407       .  A
C2746      C2747   1.408       .  A
C2746      N2751   1.437       .  S
C2747      C2748   1.403       .  A
C2747      H2752   1.084       .  S
C2748      C2753   1.493       .  S
C2748      C2749   1.412       .  A
C2749      C2750   1.409       .  A
C2749      N2754   1.438       .  S
C2750      H2755   1.083       .  S
N2751      H2771   1.045       .  S
N2751      H2772   1.046       .  S
C2753      C2756   1.403       .  A
C2753      C2760   1.412       .  A
N2754      H2769   1.046       .  S
N2754      H2770   1.046       .  S
C2756      C2757   1.402       .  A
C2756      H2761   1.084       .  S
C2757      C2758   1.421       .  A
C2757      N2762   1.432       .  S
C2758      C2759   1.407       .  A
C2759      C2760   1.407       .  A
C2759      H2763   1.084       .  S
C2760      N2764   1.438       .  S
N2762      H2765   1.044       .  S
N2762      H2766   1.045       .  S
N2764      H2767   1.046       .  S
N2764      H2768   1.046       .  S
C2773      C2774   1.414       .  A
C2773      C2778   1.406       .  A
C2774      C2775   1.411       .  A
C2774      N2779   1.437       .  S
C2775      C2776   1.403       .  A
C2775      H2780   1.084       .  S
C2776      C2781   1.484       .  S
C2776      C2777   1.408       .  A
C2777      C2778   1.405       .  A
C2777      N2782   1.438       .  S
C2778      H2783   1.083       .  S
N2779      H2799   1.046       .  S
N2779      H2800   1.046       .  S
C2781      C2784   1.398       .  A
C2781      C2788   1.409       .  A
N2782      H2797   1.046       .  S
N2782      H2798   1.046       .  S
C2784      C2785   1.405       .  A
C2784      H2789   1.084       .  S
C2785      C2786   1.421       .  A
C2785      N2790   1.438       .  S
C2786      C2787   1.407       .  A
C2787      C2788   1.411       .  A
C2787      H2791   1.083       .  S
C2788      N2792   1.437       .  S
N2790      H2793   1.046       .  S
N2790      H2794   1.046       .  S
N2792      H2795   1.046       .  S
N2792      H2796   1.046       .  S
C2801      C2802   1.414       .  A
C2801      C2806   1.405       .  A
C2802      C2803   1.409       .  A
C2802      N2807   1.437       .  S
C2803      C2804   1.405       .  A
C2803      H2808   1.083       .  S
C2804      C2809   1.488       .  S
C2804      C2805   1.410       .  A
C2805      C2806   1.401       .  A
C2805      N2810   1.438       .  S
C2806      H2811   1.083       .  S
N2807      H2827   1.045       .  S
N2807      H2828   1.046       .  S
C2809      C2812   1.403       .  A
C2809      C2816   1.410       .  A
N2810      H2825   1.046       .  S
N2810      H2826   1.045       .  S
C2812      C2813   1.402       .  A
C2812      H2817   1.084       .  S
C2813      C2814   1.417       .  A
C2813      N2818   1.439       .  S
C2814      C2815   1.407       .  A
C2815      C2816   1.408       .  A
C2815      H2819   1.083       .  S
C2816      N2820   1.437       .  S
N2818      H2821   1.046       .  S
N2818      H2822   1.046       .  S
N2820      H2823   1.046       .  S
N2820      H2824   1.046       .  S
C2829      C2830   1.419       .  A
C2829      C2834   1.408       .  A
C2830      C2831   1.403       .  A
C2830      N2835   1.432       .  S
C2831      C2832   1.399       .  A
C2831      H2836   1.084       .  S
C2832      C2837   1.488       .  S
C2832      C2833   1.412       .  A
C2833      C2834   1.408       .  A
C2833      N2838   1.438       .  S
C2834      H2839   1.082       .  S
N2835      H2855   1.046       .  S
N2835      H2856   1.046       .  S
C2837      C2840   1.400       .  A
C2837      C2844   1.412       .  A
N2838      H2853   1.046       .  S
N2838      H2854   1.046       .  S
C2840      C2841   1.404       .  A
C2840      H2845   1.084       .  S
C2841      C2842   1.417       .  A
C2841      N2846   1.437       .  S
C2842      C2843   1.405       .  A
C2843      C2844   1.410       .  A
C2843      H2847   1.083       .  S
C2844      N2848   1.438       .  S
N2846      H2849   1.046       .  S
N2846      H2850   1.046       .  S
N2848      H2851   1.046       .  S
N2848      H2852   1.046       .  S
C2857      C2858   1.424       .  A
C2857      C2862   1.411       .  A
C2858      C2859   1.408       .  A
C2858      N2863   1.437       .  S
C2859      C2860   1.400       .  A
C2859      H2864   1.084       .  S
C2860      C2865   1.490       .  S
C2860      C2861   1.409       .  A
C2861      C2862   1.409       .  A
C2861      N2866   1.438       .  S
C2862      H2867   1.082       .  S
N2863      H2883   1.046       .  S
N2863      H2884   1.046       .  S
C2865      C2868   1.403       .  A
C2865      C2872   1.412       .  A
N2866      H2881   1.046       .  S
N2866      H2882   1.046       .  S
C2868      C2869   1.401       .  A
C2868      H2873   1.084       .  S
C2869      C2870   1.418       .  A
C2869      N2874   1.433       .  S
C2870      C2871   1.405       .  A
C2871      C2872   1.409       .  A
C2871      H2875   1.084       .  S
C2872      N2876   1.437       .  S
N2874      H2877   1.044       .  S
N2874      H2878   1.046       .  S
N2876      H2879   1.046       .  S
N2876      H2880   1.046       .  S
C2885      C2886   1.418       .  A
C2885      C2890   1.408       .  A
C2886      C2887   1.411       .  A
C2886      N2891   1.437       .  S
C2887      C2888   1.402       .  A
C2887      H2892   1.084       .  S
C2888      C2893   1.487       .  S
C2888      C2889   1.409       .  A
C2889      C2890   1.406       .  A
C2889      N2894   1.438       .  S
C2890      H2895   1.083       .  S
N2891      H2911   1.045       .  S
N2891      H2912   1.046       .  S
C2893      C2896   1.404       .  A
C2893      C2900   1.409       .  A
N2894      H2909   1.046       .  S
N2894      H2910   1.046       .  S
C2896      C2897   1.403       .  A
C2896      H2901   1.084       .  S
C2897      C2898   1.417       .  A
C2897      N2902   1.432       .  S
C2898      C2899   1.407       .  A
C2899      C2900   1.406       .  A
C2899      H2903   1.084       .  S
C2900      N2904   1.438       .  S
N2902      H2905   1.045       .  S
N2902      H2906   1.045       .  S
N2904      H2907   1.046       .  S
N2904      H2908   1.046       .  S
C2913      C2914   1.422       .  A
C2913      C2918   1.409       .  A
C2914      C2915   1.404       .  A
C2914      N2919   1.432       .  S
C2915      C2916   1.403       .  A
C2915      H2920   1.084       .  S
C2916      C2921   1.496       .  S
C2916      C2917   1.411       .  A
C2917      C2918   1.410       .  A
C2917      N2922   1.438       .  S
C2918      H2923   1.083       .  S
N2919      H2939   1.045       .  S
N2919      H2940   1.045       .  S
C2921      C2924   1.405       .  A
C2921      C2928   1.412       .  A
N2922      H2937   1.046       .  S
N2922      H2938   1.046       .  S
C2924      C2925   1.410       .  A
C2924      H2929   1.084       .  S
C2925      C2926   1.416       .  A
C2925      N2930   1.438       .  S
C2926      C2927   1.408       .  A
C2927      C2928   1.409       .  A
C2927      H2931   1.083       .  S
C2928      N2932   1.438       .  S
N2930      H2933   1.046       .  S
N2930      H2934   1.046       .  S
N2932      H2935   1.046       .  S
N2932      H2936   1.046       .  S
C2941      C2942   1.420       .  A
C2941      C2946   1.411       .  A
C2942      C2943   1.412       .  A
C2942      N2947   1.437       .  S
C2943      C2944   1.401       .  A
C2943      H2948   1.084       .  S
C2944      C2949   1.487       .  S
C2944      C2945   1.407       .  A
C2945      C2946   1.407       .  A
C2945      N2950   1.438       .  S
C2946      H2951   1.083       .  S
N2947      H2967   1.045       .  S
N2947      H2968   1.046       .  S
C2949      C2952   1.404       .  A
C2949      C2956   1.407       .  A
N2950      H2965   1.046       .  S
N2950      H2966   1.046       .  S
C2952      C2953   1.414       .  A
C2952      H2957   1.083       .  S
C2953      C2954   1.416       .  A
C2953      N2958   1.437       .  S
C2954      C2955   1.408       .  A
C2955      C2956   1.404       .  A
C2955      H2959   1.083       .  S
C2956      N2960   1.438       .  S
N2958      H2961   1.046       .  S
N2958      H2962   1.045       .  S
N2960      H2963   1.046       .  S
N2960      H2964   1.046       .  S
C2969      C2970   1.419       .  A
C2969      C2974   1.408       .  A
C2970      C2971   1.406       .  A
C2970      N2975   1.432       .  S
C2971      C2972   1.403       .  A
C2971      H2976   1.084       .  S
C2972      C2977   1.486       .  S
C2972      C2973   1.408       .  A
C2973      C2974   1.406       .  A
C2973      N2978   1.438       .  S
C2974      H2979   1.084       .  S
N2975      H2995   1.045       .  S
N2975      H2996   1.046       .  S
C2977      C2980   1.399       .  A
C2977      C2984   1.408       .  A
N2978      H2993   1.046       .  S
N2978      H2994   1.045       .  S
C2980      C2981   1.406       .  A
C2980      H2985   1.084       .  S
C2981      C2982   1.420       .  A
C2981      N2986   1.438       .  S
C2982      C2983   1.411       .  A
C2983      C2984   1.412       .  A
C2983      H2987   1.083       .  S
C2984      N2988   1.437       .  S
N2986      H2989   1.046       .  S
N2986      H2990   1.046       .  S
N2988      H2991   1.046       .  S
N2988      H2992   1.045       .  S
C2997      C2998   1.416       .  A
C2997      C3002   1.408       .  A
C2998      C2999   1.411       .  A
C2998      N3003   1.438       .  S
C2999      C3000   1.403       .  A
C2999      H3004   1.084       .  S
C3000      C3005   1.493       .  S
C3000      C3001   1.410       .  A
C3001      C3002   1.411       .  A
C3001      N3006   1.437       .  S
C3002      H3007   1.083       .  S
N3003      H3023   1.046       .  S
N3003      H3024   1.046       .  S
C3005      C3008   1.404       .  A
C3005      C3012   1.418       .  A
N3006      H3021   1.046       .  S
N3006      H3022   1.046       .  S
C3008      C3009   1.411       .  A
C3008      H3013   1.084       .  S
C3009      C3010   1.417       .  A
C3009      N3014   1.438       .  S
C3010      C3011   1.407       .  A
C3011      C3012   1.407       .  A
C3011      H3015   1.084       .  S
C3012      N3016   1.439       .  S
N3014      H3017   1.046       .  S
N3014      H3018   1.046       .  S
N3016      H3019   1.046       .  S
N3016      H3020   1.043       .  S
C3025      C3026   1.419       .  A
C3025      C3030   1.411       .  A
C3026      C3027   1.411       .  A
C3026      N3031   1.437       .  S
C3027      C3028   1.404       .  A
C3027      H3032   1.084       .  S
C3028      C3033   1.492       .  S
C3028      C3029   1.408       .  A
C3029      C3030   1.405       .  A
C3029      N3034   1.438       .  S
C3030      H3035   1.083       .  S
N3031      H3051   1.045       .  S
N3031      H3052   1.046       .  S
C3033      C3036   1.404       .  A
C3033      C3040   1.409       .  A
N3034      H3049   1.046       .  S
N3034      H3050   1.046       .  S
C3036      C3037   1.410       .  A
C3036      H3041   1.084       .  S
C3037      C3038   1.416       .  A
C3037      N3042   1.436       .  S
C3038      C3039   1.410       .  A
C3039      C3040   1.407       .  A
C3039      H3043   1.082       .  S
C3040      N3044   1.438       .  S
N3042      H3045   1.046       .  S
N3042      H3046   1.046       .  S
N3044      H3047   1.046       .  S
N3044      H3048   1.046       .  S
C3053      C3054   1.416       .  A
C3053      C3058   1.407       .  A
C3054      C3055   1.404       .  A
C3054      N3059   1.438       .  S
C3055      C3056   1.402       .  A
C3055      H3060   1.084       .  S
C3056      C3061   1.485       .  S
C3056      C3057   1.410       .  A
C3057      C3058   1.407       .  A
C3057      N3062   1.438       .  S
C3058      H3063   1.083       .  S
N3059      H3079   1.046       .  S
N3059      H3080   1.046       .  S
C3061      C3064   1.404       .  A
C3061      C3068   1.410       .  A
N3062      H3077   1.046       .  S
N3062      H3078   1.046       .  S
C3064      C3065   1.407       .  A
C3064      H3069   1.084       .  S
C3065      C3066   1.411       .  A
C3065      N3070   1.438       .  S
C3066      C3067   1.402       .  A
C3067      C3068   1.404       .  A
C3067      H3071   1.084       .  S
C3068      N3072   1.438       .  S
N3070      H3073   1.046       .  S
N3070      H3074   1.046       .  S
N3072      H3075   1.046       .  S
N3072      H3076   1.046       .  S
C3081      C3082   1.413       .  A
C3081      C3086   1.405       .  A
C3082      C3083   1.411       .  A
C3082      N3087   1.437       .  S
C3083      C3084   1.404       .  A
C3083      H3088   1.084       .  S
C3084      C3089   1.484       .  S
C3084      C3085   1.408       .  A
C3085      C3086   1.404       .  A
C3085      N3090   1.438       .  S
C3086      H3091   1.083       .  S
N3087      H3107   1.046       .  S
N3087      H3108   1.046       .  S
C3089      C3092   1.400       .  A
C3089      C3096   1.409       .  A
N3090      H3105   1.046       .  S
N3090      H3106   1.046       .  S
C3092      C3093   1.406       .  A
C3092      H3097   1.084       .  S
C3093      C3094   1.416       .  A
C3093      N3098   1.438       .  S
C3094      C3095   1.406       .  A
C3095      C3096   1.409       .  A
C3095      H3099   1.083       .  S
C3096      N3100   1.437       .  S
N3098      H3101   1.046       .  S
N3098      H3102   1.046       .  S
N3100      H3103   1.046       .  S
N3100      H3104   1.046       .  S
C3109      C3110   1.414       .  A
C3109      C3114   1.407       .  A
C3110      C3111   1.409       .  A
C3110      N3115   1.437       .  S
C3111      C3112   1.402       .  A
C3111      H3116   1.084       .  S
C3112      C3117   1.482       .  S
C3112      C3113   1.407       .  A
C3113      C3114   1.405       .  A
C3113      N3118   1.438       .  S
C3114      H3119   1.083       .  S
N3115      H3135   1.046       .  S
N3115      H3136   1.046       .  S
C3117      C3120   1.399       .  A
C3117      C3124   1.409       .  A
N3118      H3133   1.046       .  S
N3118      H3134   1.046       .  S
C3120      C3121   1.406       .  A
C3120      H3125   1.084       .  S
C3121      C3122   1.417       .  A
C3121      N3126   1.438       .  S
C3122      C3123   1.406       .  A
C3123      C3124   1.409       .  A
C3123      H3127   1.084       .  S
C3124      N3128   1.437       .  S
N3126      H3129   1.046       .  S
N3126      H3130   1.046       .  S
N3128      H3131   1.046       .  S
N3128      H3132   1.046       .  S
C3137      C3138   1.414       .  A
C3137      C3142   1.404       .  A
C3138      C3139   1.406       .  A
C3138      N3143   1.438       .  S
C3139      C3140   1.403       .  A
C3139      H3144   1.084       .  S
C3140      C3145   1.487       .  S
C3140      C3141   1.411       .  A
C3141      C3142   1.405       .  A
C3141      N3146   1.438       .  S
C3142      H3147   1.084       .  S
N3143      H3163   1.046       .  S
N3143      H3164   1.046       .  S
C3145      C3148   1.403       .  A
C3145      C3152   1.410       .  A
N3146      H3161   1.046       .  S
N3146      H3162   1.046       .  S
C3148      C3149   1.406       .  A
C3148      H3153   1.084       .  S
C3149      C3150   1.415       .  A
C3149      N3154   1.438       .  S
C3150      C3151   1.407       .  A
C3151      C3152   1.406       .  A
C3151      H3155   1.083       .  S
C3152      N3156   1.438       .  S
N3154      H3157   1.046       .  S
N3154      H3158   1.046       .  S
N3156      H3159   1.046       .  S
N3156      H3160   1.046       .  S
C3165      C3166   1.410       .  A
C3165      C3170   1.403       .  A
C3166      C3167   1.403       .  A
C3166      N3171   1.438       .  S
C3167      C3168   1.404       .  A
C3167      H3172   1.084       .  S
C3168      C3173   1.483       .  S
C3168      C3169   1.411       .  A
C3169      C3170   1.403       .  A
C3169      N3174   1.438       .  S
C3170      H3175   1.084       .  S
N3171      H3191   1.046       .  S
N3171      H3192   1.046       .  S
C3173      C3176   1.403       .  A
C3173      C3180   1.410       .  A
N3174      H3189   1.046       .  S
N3174      H3190   1.046       .  S
C3176      C3177   1.405       .  A
C3176      H3181   1.084       .  S
C3177      C3178   1.415       .  A
C3177      N3182   1.437       .  S
C3178      C3179   1.404       .  A
C3179      C3180   1.403       .  A
C3179      H3183   1.083       .  S
C3180      N3184   1.438       .  S
N3182      H3185   1.046       .  S
N3182      H3186   1.046       .  S
N3184      H3187   1.046       .  S
N3184      H3188   1.046       .  S
C3193      C3194   1.416       .  A
C3193      C3198   1.408       .  A
C3194      C3195   1.405       .  A
C3194      N3199   1.437       .  S
C3195      C3196   1.403       .  A
C3195      H3200   1.084       .  S
C3196      C3201   1.488       .  S
C3196      C3197   1.410       .  A
C3197      C3198   1.404       .  A
C3197      N3202   1.438       .  S
C3198      H3203   1.083       .  S
N3199      H3219   1.045       .  S
N3199      H3220   1.046       .  S
C3201      C3204   1.406       .  A
C3201      C3208   1.411       .  A
N3202      H3217   1.046       .  S
N3202      H3218   1.046       .  S
C3204      C3205   1.407       .  A
C3204      H3209   1.083       .  S
C3205      C3206   1.412       .  A
C3205      N3210   1.438       .  S
C3206      C3207   1.404       .  A
C3207      C3208   1.401       .  A
C3207      H3211   1.084       .  S
C3208      N3212   1.438       .  S
N3210      H3213   1.046       .  S
N3210      H3214   1.046       .  S
N3212      H3215   1.046       .  S
N3212      H3216   1.046       .  S
C3221      C3222   1.415       .  A
C3221      C3226   1.405       .  A
C3222      C3223   1.407       .  A
C3222      N3227   1.437       .  S
C3223      C3224   1.403       .  A
C3223      H3228   1.084       .  S
C3224      C3229   1.490       .  S
C3224      C3225   1.411       .  A
C3225      C3226   1.407       .  A
C3225      N3230   1.438       .  S
C3226      H3231   1.083       .  S
N3227      H3247   1.046       .  S
N3227      H3248   1.046       .  S
C3229      C3232   1.401       .  A
C3229      C3236   1.410       .  A
N3230      H3245   1.046       .  S
N3230      H3246   1.046       .  S
C3232      C3233   1.406       .  A
C3232      H3237   1.084       .  S
C3233      C3234   1.422       .  A
C3233      N3238   1.438       .  S
C3234      C3235   1.407       .  A
C3235      C3236   1.407       .  A
C3235      H3239   1.083       .  S
C3236      N3240   1.438       .  S
N3238      H3241   1.046       .  S
N3238      H3242   1.046       .  S
N3240      H3243   1.046       .  S
N3240      H3244   1.046       .  S
C3249      C3250   1.416       .  A
C3249      C3254   1.409       .  A
C3250      C3251   1.411       .  A
C3250      N3255   1.437       .  S
C3251      C3252   1.407       .  A
C3251      H3256   1.083       .  S
C3252      C3257   1.500       .  S
C3252      C3253   1.412       .  A
C3253      C3254   1.406       .  A
C3253      N3258   1.438       .  S
C3254      H3259   1.081       .  S
N3255      H3275   1.046       .  S
N3255      H3276   1.046       .  S
C3257      C3260   1.407       .  A
C3257      C3264   1.413       .  A
N3258      H3273   1.046       .  S
N3258      H3274   1.046       .  S
C3260      C3261   1.410       .  A
C3260      H3265   1.083       .  S
C3261      C3262   1.414       .  A
C3261      N3266   1.438       .  S
C3262      C3263   1.407       .  A
C3263      C3264   1.408       .  A
C3263      H3267   1.083       .  S
C3264      N3268   1.438       .  S
N3266      H3269   1.046       .  S
N3266      H3270   1.046       .  S
N3268      H3271   1.046       .  S
N3268      H3272   1.045       .  S
C3277      C3278   1.410   1_556  A
C3277      C3282   1.405       .  A
C3278      C3279   1.402   1_554  A
C3278      N3283   1.432       .  S
C3279      C3280   1.403       .  A
C3279      H3284   1.084   1_556  S
C3280      C3285   1.483       .  S
C3280      C3281   1.411       .  A
C3281      C3282   1.405       .  A
C3281      N3286   1.438       .  S
C3282      H3287   1.083       .  S
N3283      H3303   1.046       .  S
N3283      H3304   1.046       .  S
C3285      C3288   1.401       .  A
C3285      C3292   1.410       .  A
N3286      H3301   1.046       .  S
N3286      H3302   1.045       .  S
C3288      C3289   1.405       .  A
C3288      H3293   1.084       .  S
C3289      C3290   1.414       .  A
C3289      N3294   1.437       .  S
C3290      C3291   1.405       .  A
C3291      C3292   1.405       .  A
C3291      H3295   1.084       .  S
C3292      N3296   1.438       .  S
N3294      H3297   1.046       .  S
N3294      H3298   1.046       .  S
N3296      H3299   1.046       .  S
N3296      H3300   1.046       .  S
C3305      C3306   1.416       .  A
C3305      C3310   1.405       .  A
C3306      C3307   1.408       .  A
C3306      N3311   1.438       .  S
C3307      C3308   1.401       .  A
C3307      H3312   1.084       .  S
C3308      C3313   1.488       .  S
C3308      C3309   1.411       .  A
C3309      C3310   1.411       .  A
C3309      N3314   1.437       .  S
C3310      H3315   1.083       .  S
N3311      H3331   1.046       .  S
N3311      H3332   1.046       .  S
C3313      C3316   1.404       .  A
C3313      C3320   1.408       .  A
N3314      H3329   1.046       .  S
N3314      H3330   1.046       .  S
C3316      C3317   1.412       .  A
C3316      H3321   1.084       .  S
C3317      C3318   1.416       .  A
C3317      N3322   1.437       .  S
C3318      C3319   1.406       .  A
C3319      C3320   1.406       .  A
C3319      H3323   1.084       .  S
C3320      N3324   1.438       .  S
N3322      H3325   1.046       .  S
N3322      H3326   1.045       .  S
N3324      H3327   1.046       .  S
N3324      H3328   1.046       .  S
C3333      C3334   1.415       .  A
C3333      C3338   1.405       .  A
C3334      C3335   1.405       .  A
C3334      N3339   1.438       .  S
C3335      C3336   1.402       .  A
C3335      H3340   1.084       .  S
C3336      C3341   1.485       .  S
C3336      C3337   1.410       .  A
C3337      C3338   1.404       .  A
C3337      N3342   1.438       .  S
C3338      H3343   1.084       .  S
N3339      H3359   1.046       .  S
N3339      H3360   1.046       .  S
C3341      C3344   1.401       .  A
C3341      C3348   1.410       .  A
N3342      H3357   1.046       .  S
N3342      H3358   1.046       .  S
C3344      C3345   1.404       .  A
C3344      H3349   1.084       .  S
C3345      C3346   1.417       .  A
C3345      N3350   1.438       .  S
C3346      C3347   1.407       .  A
C3347      C3348   1.406       .  A
C3347      H3351   1.083       .  S
C3348      N3352   1.438       .  S
N3350      H3353   1.046       .  S
N3350      H3354   1.046       .  S
N3352      H3355   1.046       .  S
N3352      H3356   1.046       .  S
C3361      C3362   1.420       .  A
C3361      C3366   1.408       .  A
C3362      C3363   1.405       .  A
C3362      N3367   1.438       .  S
C3363      C3364   1.401       .  A
C3363      H3368   1.084       .  S
C3364      C3369   1.486       .  S
C3364      C3365   1.409       .  A
C3365      C3366   1.406       .  A
C3365      N3370   1.438       .  S
C3366      H3371   1.083       .  S
N3367      H3387   1.046       .  S
N3367      H3388   1.046       .  S
C3369      C3372   1.402       .  A
C3369      C3376   1.409       .  A
N3370      H3385   1.046       .  S
N3370      H3386   1.046       .  S
C3372      C3373   1.407       .  A
C3372      H3377   1.084       .  S
C3373      C3374   1.416       .  A
C3373      N3378   1.437       .  S
C3374      C3375   1.408       .  A
C3375      C3376   1.405       .  A
C3375      H3379   1.082       .  S
C3376      N3380   1.438       .  S
N3378      H3381   1.046       .  S
N3378      H3382   1.046       .  S
N3380      H3383   1.046       .  S
N3380      H3384   1.045       .  S
C3389      C3390   1.415       .  A
C3389      C3394   1.403       .  A
C3390      C3391   1.406       .  A
C3390      N3395   1.438       .  S
C3391      C3392   1.402       .  A
C3391      H3396   1.084       .  S
C3392      C3397   1.492       .  S
C3392      C3393   1.414       .  A
C3393      C3394   1.409       .  A
C3393      N3398   1.437       .  S
C3394      H3399   1.083       .  S
N3395      H3415   1.046       .  S
N3395      H3416   1.046       .  S
C3397      C3400   1.404       .  A
C3397      C3404   1.414       .  A
N3398      H3413   1.046       .  S
N3398      H3414   1.045       .  S
C3400      C3401   1.406       .  A
C3400      H3405   1.084       .  S
C3401      C3402   1.409       .  A
C3401      N3406   1.438       .  S
C3402      C3403   1.403       .  A
C3403      C3404   1.409       .  A
C3403      H3407   1.084       .  S
C3404      N3408   1.438       .  S
N3406      H3409   1.046       .  S
N3406      H3410   1.046       .  S
N3408      H3411   1.046       .  S
N3408      H3412   1.046       .  S
C3417      C3418   1.416       .  A
C3417      C3422   1.405       .  A
C3418      C3419   1.406       .  A
C3418      N3423   1.438       .  S
C3419      C3420   1.402       .  A
C3419      H3424   1.084       .  S
C3420      C3425   1.487       .  S
C3420      C3421   1.411       .  A
C3421      C3422   1.406       .  A
C3421      N3426   1.438       .  S
C3422      H3427   1.083       .  S
N3423      H3443   1.046       .  S
N3423      H3444   1.046       .  S
C3425      C3428   1.400       .  A
C3425      C3432   1.409       .  A
N3426      H3441   1.046       .  S
N3426      H3442   1.046       .  S
C3428      C3429   1.405       .  A
C3428      H3433   1.084       .  S
C3429      C3430   1.420       .  A
C3429      N3434   1.437       .  S
C3430      C3431   1.409       .  A
C3431      C3432   1.406       .  A
C3431      H3435   1.083       .  S
C3432      N3436   1.438       .  S
N3434      H3437   1.045       .  S
N3434      H3438   1.046       .  S
N3436      H3439   1.046       .  S
N3436      H3440   1.046       .  S
C3445      C3446   1.413       .  A
C3445      C3450   1.406       .  A
C3446      C3447   1.404       .  A
C3446      N3451   1.436       .  S
C3447      C3448   1.400       .  A
C3447      H3452   1.084       .  S
C3448      C3453   1.476       .  S
C3448      C3449   1.407       .  A
C3449      C3450   1.404       .  A
C3449      N3454   1.438       .  S
C3450      H3455   1.083       .  S
N3451      H3471   1.046       .  S
N3451      H3472   1.046       .  S
C3453      C3456   1.401       .  A
C3453      C3460   1.407       .  A
N3454      H3469   1.046       .  S
N3454      H3470   1.046       .  S
C3456      C3457   1.404       .  A
C3456      H3461   1.084       .  S
C3457      C3458   1.412       .  A
C3457      N3462   1.437       .  S
C3458      C3459   1.404       .  A
C3459      C3460   1.404       .  A
C3459      H3463   1.084       .  S
C3460      N3464   1.438       .  S
N3462      H3465   1.046       .  S
N3462      H3466   1.046       .  S
N3464      H3467   1.046       .  S
N3464      H3468   1.046       .  S
C3473      C3474   1.416       .  A
C3473      C3478   1.404       .  A
C3474      C3475   1.405       .  A
C3474      N3479   1.438       .  S
C3475      C3476   1.402       .  A
C3475      H3480   1.084       .  S
C3476      C3481   1.488       .  S
C3476      C3477   1.412       .  A
C3477      C3478   1.406       .  A
C3477      N3482   1.438       .  S
C3478      H3483   1.084       .  S
N3479      H3499   1.046       .  S
N3479      H3500   1.046       .  S
C3481      C3484   1.402       .  A
C3481      C3488   1.411       .  A
N3482      H3497   1.046       .  S
N3482      H3498   1.046       .  S
C3484      C3485   1.404       .  A
C3484      H3489   1.084       .  S
C3485      C3486   1.417       .  A
C3485      N3490   1.438       .  S
C3486      C3487   1.406       .  A
C3487      C3488   1.407       .  A
C3487      H3491   1.083       .  S
C3488      N3492   1.438       .  S
N3490      H3493   1.046       .  S
N3490      H3494   1.046       .  S
N3492      H3495   1.046       .  S
N3492      H3496   1.046       .  S
C3501      C3502   1.418       .  A
C3501      C3506   1.406       .  A
C3502      C3503   1.405       .  A
C3502      N3507   1.438   1_554  S
C3503      C3504   1.402       .  A
C3503      H3508   1.084       .  S
C3504      C3509   1.491       .  S
C3504      C3505   1.413       .  A
C3505      C3506   1.408       .  A
C3505      N3510   1.438       .  S
C3506      H3511   1.083       .  S
N3507      H3527   1.046       .  S
N3507      H3528   1.046   1_556  S
C3509      C3512   1.403       .  A
C3509      C3516   1.413       .  A
N3510      H3525   1.046       .  S
N3510      H3526   1.045       .  S
C3512      C3513   1.406       .  A
C3512      H3517   1.083       .  S
C3513      C3514   1.417       .  A
C3513      N3518   1.438       .  S
C3514      C3515   1.406       .  A
C3515      C3516   1.407       .  A
C3515      H3519   1.083       .  S
C3516      N3520   1.438       .  S
N3518      H3521   1.046       .  S
N3518      H3522   1.046       .  S
N3520      H3523   1.046       .  S
N3520      H3524   1.046       .  S
C3529      C3530   1.412       .  A
C3529      C3534   1.404       .  A
C3530      C3531   1.408       .  A
C3530      N3535   1.437       .  S
C3531      C3532   1.405       .  A
C3531      H3536   1.084       .  S
C3532      C3537   1.490       .  S
C3532      C3533   1.410       .  A
C3533      C3534   1.406       .  A
C3533      N3538   1.438       .  S
C3534      H3539   1.084       .  S
N3535      H3555   1.046       .  S
N3535      H3556   1.046       .  S
C3537      C3540   1.405       .  A
C3537      C3544   1.409       .  A
N3538      H3553   1.046       .  S
N3538      H3554   1.046       .  S
C3540      C3541   1.408       .  A
C3540      H3545   1.084       .  S
C3541      C3542   1.414       .  A
C3541      N3546   1.437       .  S
C3542      C3543   1.408       .  A
C3543      C3544   1.407       .  A
C3543      H3547   1.083       .  S
C3544      N3548   1.438       .  S
N3546      H3549   1.046       .  S
N3546      H3550   1.046       .  S
N3548      H3551   1.046       .  S
N3548      H3552   1.046       .  S
C3557      C3558   1.414       .  A
C3557      C3562   1.405   1_556  A
C3558      C3559   1.408       .  A
C3558      N3563   1.437       .  S
C3559      C3560   1.402       .  A
C3559      H3564   1.084       .  S
C3560      C3565   1.481       .  S
C3560      C3561   1.409   1_556  A
C3561      C3562   1.406       .  A
C3561      N3566   1.438       .  S
C3562      H3567   1.083       .  S
N3563      H3583   1.046       .  S
N3563      H3584   1.046       .  S
C3565      C3568   1.402       .  A
C3565      C3572   1.410   1_556  A
N3566      H3581   1.046       .  S
N3566      H3582   1.044       .  S
C3568      C3569   1.408       .  A
C3568      H3573   1.084       .  S
C3569      C3570   1.412       .  A
C3569      N3574   1.438       .  S
C3570      C3571   1.403   1_556  A
C3571      C3572   1.407       .  A
C3571      H3575   1.084       .  S
C3572      N3576   1.438       .  S
N3574      H3577   1.046       .  S
N3574      H3578   1.046       .  S
N3576      H3579   1.046       .  S
N3576      H3580   1.044       .  S
C3585      C3586   1.422       .  A
C3585      C3590   1.408       .  A
C3586      C3587   1.405       .  A
C3586      N3591   1.433       .  S
C3587      C3588   1.399       .  A
C3587      H3592   1.084       .  S
C3588      C3593   1.492       .  S
C3588      C3589   1.412       .  A
C3589      C3590   1.411       .  A
C3589      N3594   1.437       .  S
C3590      H3595   1.083       .  S
N3591      H3611   1.046       .  S
N3591      H3612   1.046       .  S
C3593      C3596   1.401       .  A
C3593      C3600   1.413       .  A
N3594      H3609   1.046       .  S
N3594      H3610   1.046       .  S
C3596      C3597   1.406       .  A
C3596      H3601   1.084       .  S
C3597      C3598   1.416       .  A
C3597      N3602   1.437       .  S
C3598      C3599   1.406       .  A
C3599      C3600   1.411       .  A
C3599      H3603   1.083       .  S
C3600      N3604   1.437       .  S
N3602      H3605   1.046       .  S
N3602      H3606   1.046       .  S
N3604      H3607   1.046       .  S
N3604      H3608   1.046       .  S
C3613      C3614   1.412       .  A
C3613      C3618   1.407       .  A
C3614      C3615   1.411       .  A
C3614      N3619   1.437       .  S
C3615      C3616   1.407       .  A
C3615      H3620   1.083       .  S
C3616      C3621   1.498       .  S
C3616      C3617   1.412       .  A
C3617      C3618   1.410       .  A
C3617      N3622   1.438       .  S
C3618      H3623   1.084       .  S
N3619      H3639   1.046       .  S
N3619      H3640   1.046       .  S
C3621      C3624   1.407       .  A
C3621      C3628   1.412       .  A
N3622      H3637   1.046       .  S
N3622      H3638   1.046       .  S
C3624      C3625   1.413       .  A
C3624      H3629   1.083       .  S
C3625      C3626   1.414       .  A
C3625      N3630   1.437       .  S
C3626      C3627   1.406       .  A
C3627      C3628   1.408       .  A
C3627      H3631   1.083       .  S
C3628      N3632   1.438       .  S
N3630      H3633   1.046       .  S
N3630      H3634   1.046       .  S
N3632      H3635   1.046       .  S
N3632      H3636   1.046       .  S
C3641      C3642   1.417       .  A
C3641      C3646   1.406       .  A
C3642      C3643   1.412       .  A
C3642      N3647   1.437       .  S
C3643      C3644   1.403       .  A
C3643      H3648   1.084       .  S
C3644      C3649   1.491       .  S
C3644      C3645   1.410       .  A
C3645      C3646   1.410       .  A
C3645      N3650   1.438       .  S
C3646      H3651   1.084       .  S
N3647      H3667   1.046       .  S
N3647      H3668   1.046       .  S
C3649      C3652   1.401       .  A
C3649      C3656   1.411       .  A
N3650      H3665   1.046       .  S
N3650      H3666   1.045       .  S
C3652      C3653   1.403       .  A
C3652      H3657   1.084       .  S
C3653      C3654   1.419       .  A
C3653      N3658   1.433       .  S
C3654      C3655   1.407       .  A
C3655      C3656   1.413       .  A
C3655      H3659   1.084       .  S
C3656      N3660   1.438       .  S
N3658      H3661   1.044       .  S
N3658      H3662   1.046       .  S
N3660      H3663   1.046       .  S
N3660      H3664   1.045       .  S
C3669      C3670   1.420       .  A
C3669      C3674   1.411       .  A
C3670      C3671   1.402       .  A
C3670      N3675   1.438       .  S
C3671      C3672   1.400       .  A
C3671      H3676   1.084       .  S
C3672      C3677   1.488       .  S
C3672      C3673   1.409       .  A
C3673      C3674   1.412       .  A
C3673      N3678   1.437       .  S
C3674      H3679   1.083       .  S
N3675      H3695   1.046       .  S
N3675      H3696   1.046       .  S
C3677      C3680   1.403       .  A
C3677      C3684   1.410       .  A
N3678      H3693   1.046       .  S
N3678      H3694   1.046       .  S
C3680      C3681   1.411       .  A
C3680      H3685   1.083       .  S
C3681      C3682   1.417       .  A
C3681      N3686   1.436       .  S
C3682      C3683   1.406       .  A
C3683      C3684   1.403       .  A
C3683      H3687   1.084       .  S
C3684      N3688   1.438       .  S
N3686      H3689   1.046       .  S
N3686      H3690   1.045       .  S
N3688      H3691   1.046       .  S
N3688      H3692   1.046       .  S
C3697      C3698   1.414       .  A
C3697      C3702   1.407       .  A
C3698      C3699   1.409       .  A
C3698      N3703   1.438       .  S
C3699      C3700   1.405       .  A
C3699      H3704   1.084       .  S
C3700      C3705   1.493       .  S
C3700      C3701   1.419       .  A
C3701      C3702   1.405       .  A
C3701      N3706   1.440       .  S
C3702      H3707   1.084       .  S
N3703      H3723   1.046       .  S
N3703      H3724   1.046       .  S
C3705      C3708   1.405       .  A
C3705      C3712   1.410       .  A
N3706      H3721   1.046       .  S
N3706      H3722   1.042       .  S
C3708      C3709   1.411       .  A
C3708      H3713   1.084       .  S
C3709      C3710   1.416       .  A
C3709      N3714   1.438       .  S
C3710      C3711   1.406       .  A
C3711      C3712   1.407       .  A
C3711      H3715   1.083       .  S
C3712      N3716   1.438       .  S
N3714      H3717   1.046       .  S
N3714      H3718   1.046       .  S
N3716      H3719   1.046       .  S
N3716      H3720   1.046       .  S
C3725      C3726   1.412       .  A
C3725      C3730   1.403       .  A
C3726      C3727   1.405       .  A
C3726      N3731   1.438       .  S
C3727      C3728   1.402       .  A
C3727      H3732   1.084       .  S
C3728      C3733   1.484       .  S
C3728      C3729   1.411       .  A
C3729      C3730   1.408       .  A
C3729      N3734   1.437       .  S
C3730      H3735   1.084       .  S
N3731      H3751   1.046       .  S
N3731      H3752   1.046       .  S
C3733      C3736   1.403       .  A
C3733      C3740   1.409       .  A
N3734      H3749   1.046       .  S
N3734      H3750   1.046       .  S
C3736      C3737   1.407       .  A
C3736      H3741   1.084       .  S
C3737      C3738   1.413       .  A
C3737      N3742   1.437       .  S
C3738      C3739   1.406       .  A
C3739      C3740   1.405       .  A
C3739      H3743   1.084       .  S
C3740      N3744   1.438       .  S
N3742      H3745   1.046       .  S
N3742      H3746   1.046       .  S
N3744      H3747   1.046       .  S
N3744      H3748   1.046       .  S
C3753      C3754   1.420       .  A
C3753      C3758   1.411       .  A
C3754      C3755   1.412       .  A
C3754      N3759   1.438       .  S
C3755      C3756   1.405       .  A
C3755      H3760   1.084       .  S
C3756      C3761   1.492       .  S
C3756      C3757   1.407       .  A
C3757      C3758   1.404       .  A
C3757      N3762   1.438       .  S
C3758      H3763   1.083       .  S
N3759      H3779   1.046       .  S
N3759      H3780   1.046       .  S
C3761      C3764   1.406       .  A
C3761      C3768   1.410       .  A
N3762      H3777   1.046       .  S
N3762      H3778   1.046       .  S
C3764      C3765   1.410       .  A
C3764      H3769   1.084       .  S
C3765      C3766   1.414       .  A
C3765      N3770   1.437       .  S
C3766      C3767   1.408       .  A
C3767      C3768   1.406       .  A
C3767      H3771   1.083       .  S
C3768      N3772   1.438       .  S
N3770      H3773   1.046       .  S
N3770      H3774   1.045       .  S
N3772      H3775   1.046       .  S
N3772      H3776   1.046       .  S
C3781      C3782   1.415       .  A
C3781      C3786   1.406       .  A
C3782      C3783   1.403       .  A
C3782      N3787   1.438       .  S
C3783      C3784   1.400       .  A
C3783      H3788   1.084       .  S
C3784      C3789   1.484       .  S
C3784      C3785   1.410       .  A
C3785      C3786   1.410       .  A
C3785      N3790   1.437       .  S
C3786      H3791   1.083       .  S
N3787      H3807   1.046       .  S
N3787      H3808   1.046       .  S
C3789      C3792   1.401       .  A
C3789      C3796   1.410       .  A
N3790      H3805   1.046       .  S
N3790      H3806   1.045       .  S
C3792      C3793   1.407       .  A
C3792      H3797   1.084       .  S
C3793      C3794   1.415       .  A
C3793      N3798   1.438       .  S
C3794      C3795   1.404       .  A
C3795      C3796   1.407       .  A
C3795      H3799   1.083       .  S
C3796      N3800   1.437       .  S
N3798      H3801   1.046       .  S
N3798      H3802   1.046       .  S
N3800      H3803   1.046       .  S
N3800      H3804   1.046       .  S
C3809      C3810   1.417       .  A
C3809      C3814   1.406       .  A
C3810      C3811   1.409       .  A
C3810      N3815   1.438       .  S
C3811      C3812   1.403       .  A
C3811      H3816   1.084       .  S
C3812      C3817   1.489       .  S
C3812      C3813   1.410       .  A
C3813      C3814   1.407       .  A
C3813      N3818   1.438       .  S
C3814      H3819   1.084       .  S
N3815      H3835   1.045       .  S
N3815      H3836   1.046       .  S
C3817      C3820   1.403       .  A
C3817      C3824   1.418       .  A
N3818      H3833   1.046       .  S
N3818      H3834   1.046       .  S
C3820      C3821   1.405       .  A
C3820      H3825   1.084       .  S
C3821      C3822   1.414       .  A
C3821      N3826   1.432       .  S
C3822      C3823   1.407       .  A
C3823      C3824   1.404       .  A
C3823      H3827   1.083       .  S
C3824      N3828   1.439       .  S
N3826      H3829   1.046       .  S
N3826      H3830   1.046       .  S
N3828      H3831   1.046       .  S
N3828      H3832   1.042       .  S
C3837      C3838   1.420       .  A
C3837      C3842   1.411       .  A
C3838      C3839   1.409       .  A
C3838      N3843   1.438       .  S
C3839      C3840   1.401       .  A
C3839      H3844   1.084       .  S
C3840      C3845   1.488       .  S
C3840      C3841   1.408       .  A
C3841      C3842   1.408       .  A
C3841      N3846   1.438       .  S
C3842      H3847   1.083       .  S
N3843      H3863   1.046       .  S
N3843      H3864   1.046       .  S
C3845      C3848   1.403       .  A
C3845      C3852   1.408       .  A
N3846      H3861   1.046       .  S
N3846      H3862   1.046       .  S
C3848      C3849   1.411       .  A
C3848      H3853   1.084       .  S
C3849      C3850   1.417       .  A
C3849      N3854   1.437       .  S
C3850      C3851   1.409       .  A
C3851      C3852   1.406       .  A
C3851      H3855   1.082       .  S
C3852      N3856   1.438       .  S
N3854      H3857   1.046       .  S
N3854      H3858   1.046       .  S
N3856      H3859   1.046       .  S
N3856      H3860   1.046       .  S
C3865      C3866   1.418       .  A
C3865      C3870   1.408       .  A
C3866      C3867   1.410       .  A
C3866      N3871   1.437       .  S
C3867      C3868   1.401       .  A
C3867      H3872   1.084       .  S
C3868      C3873   1.484       .  S
C3868      C3869   1.408       .  A
C3869      C3870   1.407       .  A
C3869      N3874   1.438       .  S
C3870      H3875   1.084       .  S
N3871      H3891   1.044       .  S
N3871      H3892   1.046       .  S
C3873      C3876   1.403       .  A
C3873      C3880   1.408       .  A
N3874      H3889   1.046       .  S
N3874      H3890   1.046       .  S
C3876      C3877   1.411       .  A
C3876      H3881   1.084       .  S
C3877      C3878   1.416       .  A
C3877      N3882   1.437       .  S
C3878      C3879   1.405       .  A
C3879      C3880   1.404       .  A
C3879      H3883   1.084       .  S
C3880      N3884   1.438       .  S
N3882      H3885   1.046       .  S
N3882      H3886   1.045       .  S
N3884      H3887   1.046       .  S
N3884      H3888   1.046       .  S
C3893      C3894   1.413       .  A
C3893      C3898   1.405       .  A
C3894      C3895   1.405       .  A
C3894      N3899   1.438       .  S
C3895      C3896   1.401       .  A
C3895      H3900   1.084       .  S
C3896      C3901   1.488       .  S
C3896      C3897   1.412       .  A
C3897      C3898   1.411       .  A
C3897      N3902   1.437       .  S
C3898      H3903   1.084       .  S
N3899      H3919   1.046       .  S
N3899      H3920   1.046       .  S
C3901      C3904   1.404       .  A
C3901      C3908   1.409       .  A
N3902      H3917   1.046       .  S
N3902      H3918   1.046       .  S
C3904      C3905   1.412       .  A
C3904      H3909   1.084       .  S
C3905      C3906   1.414       .  A
C3905      N3910   1.437       .  S
C3906      C3907   1.405       .  A
C3907      C3908   1.405       .  A
C3907      H3911   1.083       .  S
C3908      N3912   1.438       .  S
N3910      H3913   1.046       .  S
N3910      H3914   1.046       .  S
N3912      H3915   1.046       .  S
N3912      H3916   1.046       .  S
C3921      C3922   1.410       .  A
C3921      C3926   1.404       .  A
C3922      C3923   1.404       .  A
C3922      N3927   1.438       .  S
C3923      C3924   1.401       .  A
C3923      H3928   1.084       .  S
C3924      C3929   1.480       .  S
C3924      C3925   1.410       .  A
C3925      C3926   1.409       .  A
C3925      N3930   1.437       .  S
C3926      H3931   1.084       .  S
N3927      H3947   1.046       .  S
N3927      H3948   1.046       .  S
C3929      C3932   1.401       .  A
C3929      C3936   1.405       .  A
N3930      H3945   1.046       .  S
N3930      H3946   1.046       .  S
C3932      C3933   1.412       .  A
C3932      H3937   1.084       .  S
C3933      C3934   1.419       .  A
C3933      N3938   1.437       .  S
C3934      C3935   1.408       .  A
C3935      C3936   1.401       .  A
C3935      H3939   1.083       .  S
C3936      N3940   1.439       .  S
N3938      H3941   1.046       .  S
N3938      H3942   1.046       .  S
N3940      H3943   1.045       .  S
N3940      H3944   1.046       .  S
C3949      C3950   1.419       .  A
C3949      C3954   1.408       .  A
C3950      C3951   1.404       .  A
C3950      N3955   1.432       .  S
C3951      C3952   1.402       .  A
C3951      H3956   1.084       .  S
C3952      C3957   1.486       .  S
C3952      C3953   1.409       .  A
C3953      C3954   1.409       .  A
C3953      N3958   1.438       .  S
C3954      H3959   1.083       .  S
N3955      H3975   1.046       .  S
N3955      H3976   1.043       .  S
C3957      C3960   1.402       .  A
C3957      C3964   1.410       .  A
N3958      H3973   1.046       .  S
N3958      H3974   1.045       .  S
C3960      C3961   1.402       .  A
C3960      H3965   1.084       .  S
C3961      C3962   1.418       .  A
C3961      N3966   1.433       .  S
C3962      C3963   1.406       .  A
C3963      C3964   1.409       .  A
C3963      H3967   1.084       .  S
C3964      N3968   1.438       .  S
N3966      H3969   1.044       .  S
N3966      H3970   1.046       .  S
N3968      H3971   1.046       .  S
N3968      H3972   1.045       .  S
C3977      C3978   1.416       .  A
C3977      C3982   1.405       .  A
C3978      C3979   1.406       .  A
C3978      N3983   1.437       .  S
C3979      C3980   1.402       .  A
C3979      H3984   1.084       .  S
C3980      C3985   1.492       .  S
C3980      C3981   1.413       .  A
C3981      C3982   1.409       .  A
C3981      N3986   1.438       .  S
C3982      H3987   1.083       .  S
N3983      H4003   1.046       .  S
N3983      H4004   1.046       .  S
C3985      C3988   1.403       .  A
C3985      C3992   1.414       .  A
N3986      H4001   1.046       .  S
N3986      H4002   1.046       .  S
C3988      C3989   1.406       .  A
C3988      H3993   1.084       .  S
C3989      C3990   1.413       .  A
C3989      N3994   1.438       .  S
C3990      C3991   1.405       .  A
C3991      C3992   1.410       .  A
C3991      H3995   1.084       .  S
C3992      N3996   1.438       .  S
N3994      H3997   1.046       .  S
N3994      H3998   1.046       .  S
N3996      H3999   1.046       .  S
N3996      H4000   1.046       .  S
C4005      C4006   1.413       .  A
C4005      C4010   1.405       .  A
C4006      C4007   1.408       .  A
C4006      N4011   1.437       .  S
C4007      C4008   1.404       .  A
C4007      H4012   1.084       .  S
C4008      C4013   1.490       .  S
C4008      C4009   1.411       .  A
C4009      C4010   1.405       .  A
C4009      N4014   1.438       .  S
C4010      H4015   1.083       .  S
N4011      H4031   1.046       .  S
N4011      H4032   1.046       .  S
C4013      C4016   1.403       .  A
C4013      C4020   1.408       .  A
N4014      H4029   1.046       .  S
N4014      H4030   1.046       .  S
C4016      C4017   1.409       .  A
C4016      H4021   1.084       .  S
C4017      C4018   1.420       .  A
C4017      N4022   1.438       .  S
C4018      C4019   1.410       .  A
C4019      C4020   1.405       .  A
C4019      H4023   1.083       .  S
C4020      N4024   1.438       .  S
N4022      H4025   1.046       .  S
N4022      H4026   1.045       .  S
N4024      H4027   1.046       .  S
N4024      H4028   1.046       .  S
C4033      C4034   1.412       .  A
C4033      C4038   1.404       .  A
C4034      C4035   1.406       .  A
C4034      N4039   1.437       .  S
C4035      C4036   1.402       .  A
C4035      H4040   1.084       .  S
C4036      C4041   1.479       .  S
C4036      C4037   1.408       .  A
C4037      C4038   1.403       .  A
C4037      N4042   1.438       .  S
C4038      H4043   1.083       .  S
N4039      H4059   1.046       .  S
N4039      H4060   1.046       .  S
C4041      C4044   1.400       .  A
C4041      C4048   1.406       .  A
N4042      H4057   1.046       .  S
N4042      H4058   1.046       .  S
C4044      C4045   1.407       .  A
C4044      H4049   1.084       .  S
C4045      C4046   1.419       .  A
C4045      N4050   1.438       .  S
C4046      C4047   1.408       .  A
C4047      C4048   1.404       .  A
C4047      H4051   1.083       .  S
C4048      N4052   1.438       .  S
N4050      H4053   1.046       .  S
N4050      H4054   1.046       .  S
N4052      H4055   1.046       .  S
N4052      H4056   1.046       .  S
C4061      C4062   1.413       .  A
C4061      C4066   1.405       .  A
C4062      C4063   1.405       .  A
C4062      N4067   1.438       .  S
C4063      C4064   1.400       .  A
C4063      H4068   1.084       .  S
C4064      C4069   1.477       .  S
C4064      C4065   1.408       .  A
C4065      C4066   1.406       .  A
C4065      N4070   1.438       .  S
C4066      H4071   1.084       .  S
N4067      H4087   1.046       .  S
N4067      H4088   1.046       .  S
C4069      C4072   1.401       .  A
C4069      C4076   1.408       .  A
N4070      H4085   1.046       .  S
N4070      H4086   1.045       .  S
C4072      C4073   1.407       .  A
C4072      H4077   1.084       .  S
C4073      C4074   1.414       .  A
C4073      N4078   1.438       .  S
C4074      C4075   1.405       .  A
C4075      C4076   1.405       .  A
C4075      H4079   1.084       .  S
C4076      N4080   1.438       .  S
N4078      H4081   1.046       .  S
N4078      H4082   1.046       .  S
N4080      H4083   1.046       .  S
N4080      H4084   1.045       .  S
C4089      C4090   1.414       .  A
C4089      C4094   1.408       .  A
C4090      C4091   1.410       .  A
C4090      N4095   1.437       .  S
C4091      C4092   1.404       .  A
C4091      H4096   1.084       .  S
C4092      C4097   1.490       .  S
C4092      C4093   1.409       .  A
C4093      C4094   1.407       .  A
C4093      N4098   1.438       .  S
C4094      H4099   1.083       .  S
N4095      H4115   1.046       .  S
N4095      H4116   1.046       .  S
C4097      C4100   1.405       .  A
C4097      C4104   1.411       .  A
N4098      H4113   1.046       .  S
N4098      H4114   1.046       .  S
C4100      C4101   1.409       .  A
C4100      H4105   1.084       .  S
C4101      C4102   1.411       .  A
C4101      N4106   1.437       .  S
C4102      C4103   1.405       .  A
C4103      C4104   1.408       .  A
C4103      H4107   1.084       .  S
C4104      N4108   1.438       .  S
N4106      H4109   1.046       .  S
N4106      H4110   1.045       .  S
N4108      H4111   1.046       .  S
N4108      H4112   1.046       .  S
C4117      C4118   1.413       .  A
C4117      C4122   1.404       .  A
C4118      C4119   1.407       .  A
C4118      N4123   1.438       .  S
C4119      C4120   1.404       .  A
C4119      H4124   1.084       .  S
C4120      C4125   1.496       .  S
C4120      C4121   1.415       .  A
C4121      C4122   1.410       .  A
C4121      N4126   1.437       .  S
C4122      H4127   1.083       .  S
N4123      H4143   1.046       .  S
N4123      H4144   1.046       .  S
C4125      C4128   1.404       .  A
C4125      C4132   1.414       .  A
N4126      H4141   1.046       .  S
N4126      H4142   1.046       .  S
C4128      C4129   1.409       .  A
C4128      H4133   1.083       .  S
C4129      C4130   1.416       .  A
C4129      N4134   1.438       .  S
C4130      C4131   1.404       .  A
C4131      C4132   1.408       .  A
C4131      H4135   1.084       .  S
C4132      N4136   1.438       .  S
N4134      H4137   1.046       .  S
N4134      H4138   1.046       .  S
N4136      H4139   1.046       .  S
N4136      H4140   1.046       .  S
C4145      C4146   1.412       .  A
C4145      C4150   1.404       .  A
C4146      C4147   1.405       .  A
C4146      N4151   1.437       .  S
C4147      C4148   1.403       .  A
C4147      H4152   1.084       .  S
C4148      C4153   1.486       .  S
C4148      C4149   1.411       .  A
C4149      C4150   1.405       .  A
C4149      N4154   1.438       .  S
C4150      H4155   1.083       .  S
N4151      H4171   1.046       .  S
N4151      H4172   1.046       .  S
C4153      C4156   1.400       .  A
C4153      C4160   1.410       .  A
N4154      H4169   1.046       .  S
N4154      H4170   1.046       .  S
C4156      C4157   1.401       .  A
C4156      H4161   1.084       .  S
C4157      C4158   1.417       .  A
C4157      N4162   1.432       .  S
C4158      C4159   1.409       .  A
C4159      C4160   1.406       .  A
C4159      H4163   1.083       .  S
C4160      N4164   1.438       .  S
N4162      H4165   1.046       .  S
N4162      H4166   1.046       .  S
N4164      H4167   1.046       .  S
N4164      H4168   1.046       .  S
C4173      C4174   1.416       .  A
C4173      C4178   1.406       .  A
C4174      C4175   1.404       .  A
C4174      N4179   1.437       .  S
C4175      C4176   1.400       .  A
C4175      H4180   1.084       .  S
C4176      C4181   1.478       .  S
C4176      C4177   1.408       .  A
C4177      C4178   1.404       .  A
C4177      N4182   1.438       .  S
C4178      H4183   1.084       .  S
N4179      H4199   1.046       .  S
N4179      H4200   1.046       .  S
C4181      C4184   1.400       .  A
C4181      C4188   1.408       .  A
N4182      H4197   1.046       .  S
N4182      H4198   1.046       .  S
C4184      C4185   1.403       .  A
C4184      H4189   1.084       .  S
C4185      C4186   1.416       .  A
C4185      N4190   1.437       .  S
C4186      C4187   1.406       .  A
C4187      C4188   1.405       .  A
C4187      H4191   1.083       .  S
C4188      N4192   1.438       .  S
N4190      H4193   1.046       .  S
N4190      H4194   1.046       .  S
N4192      H4195   1.046       .  S
N4192      H4196   1.046       .  S
C4201      C4202   1.414       .  A
C4201      C4206   1.405       .  A
C4202      C4203   1.407       .  A
C4202      N4207   1.438       .  S
C4203      C4204   1.403       .  A
C4203      H4208   1.083       .  S
C4204      C4209   1.499       .  S
C4204      C4205   1.416       .  A
C4205      C4206   1.413       .  A
C4205      N4210   1.438       .  S
C4206      H4211   1.083       .  S
N4207      H4227   1.046       .  S
N4207      H4228   1.046       .  S
C4209      C4212   1.402       .  A
C4209      C4216   1.414       .  A
N4210      H4225   1.046       .  S
N4210      H4226   1.046       .  S
C4212      C4213   1.409       .  A
C4212      H4217   1.083       .  S
C4213      C4214   1.422       .  A
C4213      N4218   1.438       .  S
C4214      C4215   1.407       .  A
C4215      C4216   1.411       .  A
C4215      H4219   1.083       .  S
C4216      N4220   1.438       .  S
N4218      H4221   1.046       .  S
N4218      H4222   1.046       .  S
N4220      H4223   1.046       .  S
N4220      H4224   1.045       .  S
C4229      C4230   1.416       .  A
C4229      C4234   1.404       .  A
C4230      C4231   1.409       .  A
C4230      N4235   1.438       .  S
C4231      C4232   1.405       .  A
C4231      H4236   1.083       .  S
C4232      C4237   1.499       .  S
C4232      C4233   1.415       .  A
C4233      C4234   1.410       .  A
C4233      N4238   1.438       .  S
C4234      H4239   1.083       .  S
N4235      H4255   1.046       .  S
N4235      H4256   1.046       .  S
C4237      C4240   1.402       .  A
C4237      C4244   1.415       .  A
N4238      H4253   1.046       .  S
N4238      H4254   1.045       .  S
C4240      C4241   1.404       .  A
C4240      H4245   1.084       .  S
C4241      C4242   1.418       .  A
C4241      N4246   1.433       .  S
C4242      C4243   1.408       .  A
C4243      C4244   1.413       .  A
C4243      H4247   1.083       .  S
C4244      N4248   1.438       .  S
N4246      H4249   1.046       .  S
N4246      H4250   1.046       .  S
N4248      H4251   1.046       .  S
N4248      H4252   1.046       .  S
C4257      C4258   1.414   1_545  A
C4257      C4262   1.404       .  A
C4258      C4259   1.406       .  A
C4258      N4263   1.438       .  S
C4259      C4260   1.404   1_565  A
C4259      H4264   1.084       .  S
C4260      C4265   1.487       .  S
C4260      C4261   1.411       .  A
C4261      C4262   1.405       .  A
C4261      N4266   1.438       .  S
C4262      H4267   1.084       .  S
N4263      H4283   1.046       .  S
N4263      H4284   1.046       .  S
C4265      C4268   1.404       .  A
C4265      C4272   1.411   1_545  A
N4266      H4281   1.046       .  S
N4266      H4282   1.046       .  S
C4268      C4269   1.406       .  A
C4268      H4273   1.084       .  S
C4269      C4270   1.411       .  A
C4269      N4274   1.437       .  S
C4270      C4271   1.404   1_545  A
C4271      C4272   1.406       .  A
C4271      H4275   1.084       .  S
C4272      N4276   1.438       .  S
N4274      H4277   1.046       .  S
N4274      H4278   1.046       .  S
N4276      H4279   1.046       .  S
N4276      H4280   1.046       .  S
C4285      C4286   1.417       .  A
C4285      C4290   1.409       .  A
C4286      C4287   1.407       .  A
C4286      N4291   1.437   1_545  S
C4287      C4288   1.401       .  A
C4287      H4292   1.084       .  S
C4288      C4293   1.486       .  S
C4288      C4289   1.408       .  A
C4289      C4290   1.407       .  A
C4289      N4294   1.438       .  S
C4290      H4295   1.083       .  S
N4291      H4311   1.046       .  S
N4291      H4312   1.046       .  S
C4293      C4296   1.402       .  A
C4293      C4300   1.409       .  A
N4294      H4309   1.046       .  S
N4294      H4310   1.046       .  S
C4296      C4297   1.408       .  A
C4296      H4301   1.084       .  S
C4297      C4298   1.417       .  A
C4297      N4302   1.438       .  S
C4298      C4299   1.406       .  A
C4299      C4300   1.405       .  A
C4299      H4303   1.083       .  S
C4300      N4304   1.438       .  S
N4302      H4305   1.046       .  S
N4302      H4306   1.046       .  S
N4304      H4307   1.046       .  S
N4304      H4308   1.046       .  S
C4313      C4314   1.414       .  A
C4313      C4318   1.405       .  A
C4314      C4315   1.407       .  A
C4314      N4319   1.438       .  S
C4315      C4316   1.401       .  A
C4315      H4320   1.084       .  S
C4316      C4321   1.486       .  S
C4316      C4317   1.410       .  A
C4317      C4318   1.409       .  A
C4317      N4322   1.437       .  S
C4318      H4323   1.084       .  S
N4319      H4339   1.046       .  S
N4319      H4340   1.046       .  S
C4321      C4324   1.404       .  A
C4321      C4328   1.408       .  A
N4322      H4337   1.046       .  S
N4322      H4338   1.046       .  S
C4324      C4325   1.411       .  A
C4324      H4329   1.084       .  S
C4325      C4326   1.414       .  A
C4325      N4330   1.437       .  S
C4326      C4327   1.406       .  A
C4327      C4328   1.405       .  A
C4327      H4331   1.083       .  S
C4328      N4332   1.438       .  S
N4330      H4333   1.045       .  S
N4330      H4334   1.046       .  S
N4332      H4335   1.046       .  S
N4332      H4336   1.046       .  S
C4341      C4342   1.413       .  A
C4341      C4346   1.406       .  A
C4342      C4343   1.407       .  A
C4342      N4347   1.438       .  S
C4343      C4344   1.405       .  A
C4343      H4348   1.084       .  S
C4344      C4349   1.488       .  S
C4344      C4345   1.410       .  A
C4345      C4346   1.405       .  A
C4345      N4350   1.438       .  S
C4346      H4351   1.084       .  S
N4347      H4367   1.046       .  S
N4347      H4368   1.046       .  S
C4349      C4352   1.404       .  A
C4349      C4356   1.410       .  A
N4350      H4365   1.046       .  S
N4350      H4366   1.046       .  S
C4352      C4353   1.406       .  A
C4352      H4357   1.084       .  S
C4353      C4354   1.412       .  A
C4353      N4358   1.438       .  S
C4354      C4355   1.405       .  A
C4355      C4356   1.406       .  A
C4355      H4359   1.084       .  S
C4356      N4360   1.438       .  S
N4358      H4361   1.046       .  S
N4358      H4362   1.046       .  S
N4360      H4363   1.046       .  S
N4360      H4364   1.046       .  S
C4369      C4370   1.414       .  A
C4369      C4374   1.406   1_545  A
C4370      C4371   1.406       .  A
C4370      N4375   1.437       .  S
C4371      C4372   1.403   1_545  A
C4371      H4376   1.084       .  S
C4372      C4377   1.490       .  S
C4372      C4373   1.412       .  A
C4373      C4374   1.406       .  A
C4373      N4378   1.438       .  S
C4374      H4379   1.083       .  S
N4375      H4395   1.046       .  S
N4375      H4396   1.046       .  S
C4377      C4380   1.402       .  A
C4377      C4384   1.410   1_565  A
N4378      H4393   1.046       .  S
N4378      H4394   1.045       .  S
C4380      C4381   1.408       .  A
C4380      H4385   1.084       .  S
C4381      C4382   1.420       .  A
C4381      N4386   1.438       .  S
C4382      C4383   1.408   1_565  A
C4383      C4384   1.405       .  A
C4383      H4387   1.083       .  S
C4384      N4388   1.438       .  S
N4386      H4389   1.046       .  S
N4386      H4390   1.045       .  S
N4388      H4391   1.046       .  S
N4388      H4392   1.046       .  S
C4397      C4398   1.414       .  A
C4397      C4402   1.405       .  A
C4398      C4399   1.405       .  A
C4398      N4403   1.438       .  S
C4399      C4400   1.401       .  A
C4399      H4404   1.084       .  S
C4400      C4405   1.486       .  S
C4400      C4401   1.411       .  A
C4401      C4402   1.410       .  A
C4401      N4406   1.437       .  S
C4402      H4407   1.083       .  S
N4403      H4423   1.046       .  S
N4403      H4424   1.046       .  S
C4405      C4408   1.399       .  A
C4405      C4412   1.408       .  A
N4406      H4421   1.046       .  S
N4406      H4422   1.046       .  S
C4408      C4409   1.408       .  A
C4408      H4413   1.084       .  S
C4409      C4410   1.423       .  A
C4409      N4414   1.438       .  S
C4410      C4411   1.410       .  A
C4411      C4412   1.408       .  A
C4411      H4415   1.083       .  S
C4412      N4416   1.438       .  S
N4414      H4417   1.046       .  S
N4414      H4418   1.046       .  S
N4416      H4419   1.046       .  S
N4416      H4420   1.046       .  S
C4425      C4426   1.415       .  A
C4425      C4430   1.404       .  A
C4426      C4427   1.407       .  A
C4426      N4431   1.438       .  S
C4427      C4428   1.401       .  A
C4427      H4432   1.084       .  S
C4428      C4433   1.480       .  S
C4428      C4429   1.409       .  A
C4429      C4430   1.406       .  A
C4429      N4434   1.438       .  S
C4430      H4435   1.084       .  S
N4431      H4451   1.046       .  S
N4431      H4452   1.046       .  S
C4433      C4436   1.401       .  A
C4433      C4440   1.409       .  A
N4434      H4449   1.046       .  S
N4434      H4450   1.044       .  S
C4436      C4437   1.408       .  A
C4436      H4441   1.084       .  S
C4437      C4438   1.414       .  A
C4437      N4442   1.437       .  S
C4438      C4439   1.405       .  A
C4439      C4440   1.405       .  A
C4439      H4443   1.084       .  S
C4440      N4444   1.438       .  S
N4442      H4445   1.046       .  S
N4442      H4446   1.046       .  S
N4444      H4447   1.046       .  S
N4444      H4448   1.045       .  S
C4453      C4454   1.414       .  A
C4453      C4458   1.404       .  A
C4454      C4455   1.406       .  A
C4454      N4459   1.438       .  S
C4455      C4456   1.402       .  A
C4455      H4460   1.084       .  S
C4456      C4461   1.481       .  S
C4456      C4457   1.409       .  A
C4457      C4458   1.405       .  A
C4457      N4462   1.438       .  S
C4458      H4463   1.084       .  S
N4459      H4479   1.046       .  S
N4459      H4480   1.046       .  S
C4461      C4464   1.403       .  A
C4461      C4468   1.408       .  A
N4462      H4477   1.046       .  S
N4462      H4478   1.046       .  S
C4464      C4465   1.406       .  A
C4464      H4469   1.084       .  S
C4465      C4466   1.413       .  A
C4465      N4470   1.437       .  S
C4466      C4467   1.405       .  A
C4467      C4468   1.404       .  A
C4467      H4471   1.083       .  S
C4468      N4472   1.438       .  S
N4470      H4473   1.046       .  S
N4470      H4474   1.046       .  S
N4472      H4475   1.046       .  S
N4472      H4476   1.046       .  S
C4481      C4482   1.414       .  A
C4481      C4486   1.403       .  A
C4482      C4483   1.406       .  A
C4482      N4487   1.438       .  S
C4483      C4484   1.403       .  A
C4483      H4488   1.084       .  S
C4484      C4489   1.493       .  S
C4484      C4485   1.415       .  A
C4485      C4486   1.409       .  A
C4485      N4490   1.438       .  S
C4486      H4491   1.084       .  S
N4487      H4507   1.046       .  S
N4487      H4508   1.046       .  S
C4489      C4492   1.404       .  A
C4489      C4496   1.414       .  A
N4490      H4505   1.046       .  S
N4490      H4506   1.046       .  S
C4492      C4493   1.407       .  A
C4492      H4497   1.084       .  S
C4493      C4494   1.415       .  A
C4493      N4498   1.438       .  S
C4494      C4495   1.404       .  A
C4495      C4496   1.407       .  A
C4495      H4499   1.083       .  S
C4496      N4500   1.438       .  S
N4498      H4501   1.046       .  S
N4498      H4502   1.046       .  S
N4500      H4503   1.046       .  S
N4500      H4504   1.046       .  S
C4509      C4510   1.417       .  A
C4509      C4514   1.405       .  A
C4510      C4511   1.402       .  A
C4510      N4515   1.438       .  S
C4511      C4512   1.397       .  A
C4511      H4516   1.084       .  S
C4512      C4517   1.470       .  S
C4512      C4513   1.407       .  A
C4513      C4514   1.403       .  A
C4513      N4518   1.439       .  S
C4514      H4519   1.084       .  S
N4515      H4535   1.045       .  S
N4515      H4536   1.046       .  S
C4517      C4520   1.398       .  A
C4517      C4524   1.407       .  A
N4518      H4533   1.046       .  S
N4518      H4534   1.044       .  S
C4520      C4521   1.403       .  A
C4520      H4525   1.084       .  S
C4521      C4522   1.414       .  A
C4521      N4526   1.437       .  S
C4522      C4523   1.404       .  A
C4523      C4524   1.402       .  A
C4523      H4527   1.084       .  S
C4524      N4528   1.439       .  S
N4526      H4529   1.046       .  S
N4526      H4530   1.046   1_565  S
N4528      H4531   1.046       .  S
N4528      H4532   1.044       .  S
C4537      C4538   1.411       .  A
C4537      C4542   1.403       .  A
C4538      C4539   1.405       .  A
C4538      N4543   1.438       .  S
C4539      C4540   1.401       .  A
C4539      H4544   1.084       .  S
C4540      C4545   1.473       .  S
C4540      C4541   1.407       .  A
C4541      C4542   1.403       .  A
C4541      N4546   1.438       .  S
C4542      H4547   1.084       .  S
N4543      H4563   1.046       .  S
N4543      H4564   1.046       .  S
C4545      C4548   1.401       .  A
C4545      C4552   1.406       .  A
N4546      H4561   1.046       .  S
N4546      H4562   1.045       .  S
C4548      C4549   1.407       .  A
C4548      H4553   1.084       .  S
C4549      C4550   1.411       .  A
C4549      N4554   1.437       .  S
C4550      C4551   1.404       .  A
C4551      C4552   1.400       .  A
C4551      H4555   1.084       .  S
C4552      N4556   1.438       .  S
N4554      H4557   1.046       .  S
N4554      H4558   1.046       .  S
N4556      H4559   1.046       .  S
N4556      H4560   1.045       .  S
C4565      C4566   1.413       .  A
C4565      C4570   1.403       .  A
C4566      C4567   1.405       .  A
C4566      N4571   1.438       .  S
C4567      C4568   1.402       .  A
C4567      H4572   1.084       .  S
C4568      C4573   1.482       .  S
C4568      C4569   1.410       .  A
C4569      C4570   1.404       .  A
C4569      N4574   1.438       .  S
C4570      H4575   1.084       .  S
N4571      H4591   1.046       .  S
N4571      H4592   1.046       .  S
C4573      C4576   1.400       .  A
C4573      C4580   1.407       .  A
N4574      H4589   1.046       .  S
N4574      H4590   1.046       .  S
C4576      C4577   1.405       .  A
C4576      H4581   1.084       .  S
C4577      C4578   1.418       .  A
C4577      N4582   1.436       .  S
C4578      C4579   1.409       .  A
C4579      C4580   1.406       .  A
C4579      H4583   1.082       .  S
C4580      N4584   1.438       .  S
N4582      H4585   1.046       .  S
N4582      H4586   1.046       .  S
N4584      H4587   1.046       .  S
N4584      H4588   1.046       .  S
C4593      C4594   1.421       .  A
C4593      C4598   1.410       .  A
C4594      C4595   1.410       .  A
C4594      N4599   1.438       .  S
C4595      C4596   1.402       .  A
C4595      H4600   1.084       .  S
C4596      C4601   1.484       .  S
C4596      C4597   1.405       .  A
C4597      C4598   1.403       .  A
C4597      N4602   1.438       .  S
C4598      H4603   1.083       .  S
N4599      H4619   1.046       .  S
N4599      H4620   1.046       .  S
C4601      C4604   1.404       .  A
C4601      C4608   1.407       .  A
N4602      H4617   1.045       .  S
N4602      H4618   1.046       .  S
C4604      C4605   1.408       .  A
C4604      H4609   1.084       .  S
C4605      C4606   1.411       .  A
C4605      N4610   1.437       .  S
C4606      C4607   1.407       .  A
C4607      C4608   1.405       .  A
C4607      H4611   1.083       .  S
C4608      N4612   1.438       .  S
N4610      H4613   1.046       .  S
N4610      H4614   1.046       .  S
N4612      H4615   1.046       .  S
N4612      H4616   1.046       .  S
C4621      C4622   1.419       .  A
C4621      C4626   1.410       .  A
C4622      C4623   1.411       .  A
C4622      N4627   1.437       .  S
C4623      C4624   1.402       .  A
C4623      H4628   1.084       .  S
C4624      C4629   1.488       .  S
C4624      C4625   1.407       .  A
C4625      C4626   1.407       .  A
C4625      N4630   1.438       .  S
C4626      H4631   1.083       .  S
N4627      H4647   1.045       .  S
N4627      H4648   1.046       .  S
C4629      C4632   1.402       .  A
C4629      C4636   1.410       .  A
N4630      H4645   1.046       .  S
N4630      H4646   1.046       .  S
C4632      C4633   1.409       .  A
C4632      H4637   1.084       .  S
C4633      C4634   1.415       .  A
C4633      N4638   1.438       .  S
C4634      C4635   1.405       .  A
C4635      C4636   1.410       .  A
C4635      H4639   1.083       .  S
C4636      N4640   1.437       .  S
N4638      H4641   1.046       .  S
N4638      H4642   1.046       .  S
N4640      H4643   1.046       .  S
N4640      H4644   1.046       .  S
C4649      C4650   1.421       .  A
C4649      C4654   1.406       .  A
C4650      C4651   1.406       .  A
C4650      N4655   1.440       .  S
C4651      C4652   1.403       .  A
C4651      H4656   1.084       .  S
C4652      C4657   1.491       .  S
C4652      C4653   1.418       .  A
C4653      C4654   1.405       .  A
C4653      N4658   1.440       .  S
C4654      H4659   1.084       .  S
N4655      H4675   1.041       .  S
N4655      H4676   1.046       .  S
C4657      C4660   1.403       .  A
C4657      C4664   1.410       .  A
N4658      H4673   1.046       .  S
N4658      H4674   1.042       .  S
C4660      C4661   1.409       .  A
C4660      H4665   1.084       .  S
C4661      C4662   1.415       .  A
C4661      N4666   1.437       .  S
C4662      C4663   1.408       .  A
C4663      C4664   1.408       .  A
C4663      H4667   1.083       .  S
C4664      N4668   1.438       .  S
N4666      H4669   1.046       .  S
N4666      H4670   1.046       .  S
N4668      H4671   1.046       .  S
N4668      H4672   1.045       .  S
C4677      C4678   1.418       .  A
C4677      C4682   1.408       .  A
C4678      C4679   1.403       .  A
C4678      N4683   1.433       .  S
C4679      C4680   1.401       .  A
C4679      H4684   1.084       .  S
C4680      C4685   1.492       .  S
C4680      C4681   1.413       .  A
C4681      C4682   1.409       .  A
C4681      N4686   1.438       .  S
C4682      H4687   1.083       .  S
N4683      H4703   1.046       .  S
N4683      H4704   1.046       .  S
C4685      C4688   1.403       .  A
C4685      C4692   1.414       .  A
N4686      H4701   1.046       .  S
N4686      H4702   1.046       .  S
C4688      C4689   1.405       .  A
C4688      H4693   1.084       .  S
C4689      C4690   1.414       .  A
C4689      N4694   1.438       .  S
C4690      C4691   1.404       .  A
C4691      C4692   1.409       .  A
C4691      H4695   1.083       .  S
C4692      N4696   1.438       .  S
N4694      H4697   1.046       .  S
N4694      H4698   1.046       .  S
N4696      H4699   1.046       .  S
N4696      H4700   1.046       .  S
C4705      C4706   1.415       .  A
C4705      C4710   1.408       .  A
C4706      C4707   1.410       .  A
C4706      N4711   1.437       .  S
C4707      C4708   1.402       .  A
C4707      H4712   1.084       .  S
C4708      C4713   1.480       .  S
C4708      C4709   1.406       .  A
C4709      C4710   1.403       .  A
C4709      N4714   1.438       .  S
C4710      H4715   1.084       .  S
N4711      H4731   1.045       .  S
N4711      H4732   1.046       .  S
C4713      C4716   1.398       .  A
C4713      C4720   1.408       .  A
N4714      H4729   1.046       .  S
N4714      H4730   1.046       .  S
C4716      C4717   1.404       .  A
C4716      H4721   1.084       .  S
C4717      C4718   1.417       .  A
C4717      N4722   1.437       .  S
C4718      C4719   1.407       .  A
C4719      C4720   1.409       .  A
C4719      H4723   1.083       .  S
C4720      N4724   1.437       .  S
N4722      H4725   1.046       .  S
N4722      H4726   1.046       .  S
N4724      H4727   1.046       .  S
N4724      H4728   1.046       .  S
C4733      C4734   1.411       .  A
C4733      C4738   1.403       .  A
C4734      C4735   1.404       .  A
C4734      N4739   1.438       .  S
C4735      C4736   1.402       .  A
C4735      H4740   1.084       .  S
C4736      C4741   1.487       .  S
C4736      C4737   1.413       .  A
C4737      C4738   1.410       .  A
C4737      N4742   1.437       .  S
C4738      H4743   1.084       .  S
N4739      H4759   1.046       .  S
N4739      H4760   1.046       .  S
C4741      C4744   1.402       .  A
C4741      C4748   1.410       .  A
N4742      H4757   1.046       .  S
N4742      H4758   1.046       .  S
C4744      C4745   1.404       .  A
C4744      H4749   1.084       .  S
C4745      C4746   1.421       .  A
C4745      N4750   1.432       .  S
C4746      C4747   1.407       .  A
C4747      C4748   1.405       .  A
C4747      H4751   1.083       .  S
C4748      N4752   1.438       .  S
N4750      H4753   1.045       .  S
N4750      H4754   1.045       .  S
N4752      H4755   1.046       .  S
N4752      H4756   1.046       .  S
C4761      C4762   1.416       .  A
C4761      C4766   1.406       .  A
C4762      C4763   1.409       .  A
C4762      N4767   1.438       .  S
C4763      C4764   1.404       .  A
C4763      H4768   1.084       .  S
C4764      C4769   1.494       .  S
C4764      C4765   1.412       .  A
C4765      C4766   1.409       .  A
C4765      N4770   1.438       .  S
C4766      H4771   1.083       .  S
N4767      H4787   1.046       .  S
N4767      H4788   1.046       .  S
C4769      C4772   1.403       .  A
C4769      C4776   1.413       .  A
N4770      H4785   1.046       .  S
N4770      H4786   1.046       .  S
C4772      C4773   1.405       .  A
C4772      H4777   1.084       .  S
C4773      C4774   1.414       .  A
C4773      N4778   1.432       .  S
C4774      C4775   1.408       .  A
C4775      C4776   1.411       .  A
C4775      H4779   1.083       .  S
C4776      N4780   1.438       .  S
N4778      H4781   1.046       .  S
N4778      H4782   1.046       .  S
N4780      H4783   1.046       .  S
N4780      H4784   1.046       .  S
C4789      C4790   1.412       .  A
C4789      C4794   1.405       .  A
C4790      C4791   1.408       .  A
C4790      N4795   1.438       .  S
C4791      C4792   1.405       .  A
C4791      H4796   1.084       .  S
C4792      C4797   1.489       .  S
C4792      C4793   1.410       .  A
C4793      C4794   1.406       .  A
C4793      N4798   1.438       .  S
C4794      H4799   1.084       .  S
N4795      H4815   1.046       .  S
N4795      H4816   1.046       .  S
C4797      C4800   1.405       .  A
C4797      C4804   1.409       .  A
N4798      H4813   1.046       .  S
N4798      H4814   1.046       .  S
C4800      C4801   1.409       .  A
C4800      H4805   1.084       .  S
C4801      C4802   1.414       .  A
C4801      N4806   1.437       .  S
C4802      C4803   1.406       .  A
C4803      C4804   1.405       .  A
C4803      H4807   1.083       .  S
C4804      N4808   1.438       .  S
N4806      H4809   1.046       .  S
N4806      H4810   1.046       .  S
N4808      H4811   1.046       .  S
N4808      H4812   1.046       .  S
C4817      C4818   1.423       .  A
C4817      C4822   1.409       .  A
C4818      C4819   1.406       .  A
C4818      N4823   1.438       .  S
C4819      C4820   1.398       .  A
C4819      H4824   1.084       .  S
C4820      C4825   1.489       .  S
C4820      C4821   1.410       .  A
C4821      C4822   1.412       .  A
C4821      N4826   1.437       .  S
C4822      H4827   1.083       .  S
N4823      H4843   1.046       .  S
N4823      H4844   1.046       .  S
C4825      C4828   1.400       .  A
C4825      C4832   1.411       .  A
N4826      H4841   1.046       .  S
N4826      H4842   1.046       .  S
C4828      C4829   1.408       .  A
C4828      H4833   1.084       .  S
C4829      C4830   1.418       .  A
C4829      N4834   1.438       .  S
C4830      C4831   1.405       .  A
C4831      C4832   1.410       .  A
C4831      H4835   1.083       .  S
C4832      N4836   1.437       .  S
N4834      H4837   1.046       .  S
N4834      H4838   1.046       .  S
N4836      H4839   1.046       .  S
N4836      H4840   1.046       .  S
C4845      C4846   1.408       .  A
C4845      C4850   1.403       .  A
C4846      C4847   1.402       .  A
C4846      N4851   1.438       .  S
C4847      C4848   1.403       .  A
C4847      H4852   1.084       .  S
C4848      C4853   1.485       .  S
C4848      C4849   1.419       .  A
C4849      C4850   1.407       .  A
C4849      N4854   1.439       .  S
C4850      H4855   1.084       .  S
N4851      H4871   1.046       .  S
N4851      H4872   1.046       .  S
C4853      C4856   1.405       .  A
C4853      C4860   1.410       .  A
N4854      H4869   1.046       .  S
N4854      H4870   1.043       .  S
C4856      C4857   1.408       .  A
C4856      H4861   1.084       .  S
C4857      C4858   1.409       .  A
C4857      N4862   1.432       .  S
C4858      C4859   1.403       .  A
C4859      C4860   1.403       .  A
C4859      H4863   1.084       .  S
C4860      N4864   1.438       .  S
N4862      H4865   1.046       .  S
N4862      H4866   1.045       .  S
N4864      H4867   1.046       .  S
N4864      H4868   1.046       .  S
C4873      C4874   1.421       .  A
C4873      C4878   1.407       .  A
C4874      C4875   1.407       .  A
C4874      N4879   1.438       .  S
C4875      C4876   1.400       .  A
C4875      H4880   1.084       .  S
C4876      C4881   1.488       .  S
C4876      C4877   1.410       .  A
C4877      C4878   1.409       .  A
C4877      N4882   1.437       .  S
C4878      H4883   1.083       .  S
N4879      H4899   1.045       .  S
N4879      H4900   1.046       .  S
C4881      C4884   1.402       .  A
C4881      C4888   1.419       .  A
N4882      H4897   1.046       .  S
N4882      H4898   1.046       .  S
C4884      C4885   1.407       .  A
C4884      H4889   1.084       .  S
C4885      C4886   1.415       .  A
C4885      N4890   1.438       .  S
C4886      C4887   1.405       .  A
C4887      C4888   1.405       .  A
C4887      H4891   1.084       .  S
C4888      N4892   1.439       .  S
N4890      H4893   1.046       .  S
N4890      H4894   1.046       .  S
N4892      H4895   1.046       .  S
N4892      H4896   1.042       .  S
C4901      C4902   1.414       .  A
C4901      C4906   1.406       .  A
C4902      C4903   1.411       .  A
C4902      N4907   1.437       .  S
C4903      C4904   1.404       .  A
C4903      H4908   1.084       .  S
C4904      C4909   1.486       .  S
C4904      C4905   1.408       .  A
C4905      C4906   1.404       .  A
C4905      N4910   1.438       .  S
C4906      H4911   1.083       .  S
N4907      H4927   1.046       .  S
N4907      H4928   1.046       .  S
C4909      C4912   1.400       .  A
C4909      C4916   1.410       .  A
N4910      H4925   1.046       .  S
N4910      H4926   1.046       .  S
C4912      C4913   1.406       .  A
C4912      H4917   1.084       .  S
C4913      C4914   1.417       .  A
C4913      N4918   1.438       .  S
C4914      C4915   1.406       .  A
C4915      C4916   1.410       .  A
C4915      H4919   1.084       .  S
C4916      N4920   1.437       .  S
N4918      H4921   1.046       .  S
N4918      H4922   1.046       .  S
N4920      H4923   1.046       .  S
N4920      H4924   1.046       .  S
C4929      C4930   1.420       .  A
C4929      C4934   1.411       .  A
C4930      C4931   1.413       .  A
C4930      N4935   1.437       .  S
C4931      C4932   1.402       .  A
C4931      H4936   1.084       .  S
C4932      C4937   1.484       .  S
C4932      C4933   1.405       .  A
C4933      C4934   1.404       .  A
C4933      N4938   1.438       .  S
C4934      H4939   1.083       .  S
N4935      H4955   1.046       .  S
N4935      H4956   1.046       .  S
C4937      C4940   1.399       .  A
C4937      C4944   1.409       .  A
N4938      H4953   1.046       .  S
N4938      H4954   1.046       .  S
C4940      C4941   1.401       .  A
C4940      H4945   1.084       .  S
C4941      C4942   1.416       .  A
C4941      N4946   1.433       .  S
C4942      C4943   1.408       .  A
C4943      C4944   1.412       .  A
C4943      H4947   1.083       .  S
C4944      N4948   1.437       .  S
N4946      H4949   1.046       .  S
N4946      H4950   1.046       .  S
N4948      H4951   1.046       .  S
N4948      H4952   1.046       .  S
C4957      C4958   1.411       .  A
C4957      C4962   1.403       .  A
C4958      C4959   1.410       .  A
C4958      N4963   1.438       .  S
C4959      C4960   1.407       .  A
C4959      H4964   1.083       .  S
C4960      C4965   1.500       .  S
C4960      C4961   1.416       .  A
C4961      C4962   1.411       .  A
C4961      N4966   1.438       .  S
C4962      H4967   1.084       .  S
N4963      H4983   1.046       .  S
N4963      H4984   1.046       .  S
C4965      C4968   1.403       .  A
C4965      C4972   1.415       .  A
N4966      H4981   1.046       .  S
N4966      H4982   1.046       .  S
C4968      C4969   1.407       .  A
C4968      H4973   1.083       .  S
C4969      C4970   1.417       .  A
C4969      N4974   1.438       .  S
C4970      C4971   1.406       .  A
C4971      C4972   1.412       .  A
C4971      H4975   1.083       .  S
C4972      N4976   1.437       .  S
N4974      H4977   1.046       .  S
N4974      H4978   1.046       .  S
N4976      H4979   1.046       .  S
N4976      H4980   1.046       .  S
C4985      C4986   1.411       .  A
C4985      C4990   1.408       .  A
C4986      C4987   1.408       .  A
C4986      N4991   1.431       .  S
C4987      C4988   1.404       .  A
C4987      H4992   1.084       .  S
C4988      C4993   1.489       .  S
C4988      C4989   1.409       .  A
C4989      C4990   1.408       .  A
C4989      N4994   1.438       .  S
C4990      H4995   1.084       .  S
N4991      H5011   1.045       .  S
N4991      H5012   1.046       .  S
C4993      C4996   1.402       .  A
C4993      C5000   1.408       .  A
N4994      H5009   1.046       .  S
N4994      H5010   1.046       .  S
C4996      C4997   1.413       .  A
C4996      H5001   1.084       .  S
C4997      C4998   1.418       .  A
C4997      N5002   1.436       .  S
C4998      C4999   1.408       .  A
C4999      C5000   1.407       .  A
C4999      H5003   1.083       .  S
C5000      N5004   1.438       .  S
N5002      H5005   1.046       .  S
N5002      H5006   1.045       .  S
N5004      H5007   1.046       .  S
N5004      H5008   1.046       .  S
C5013      C5014   1.416       .  A
C5013      C5018   1.408       .  A
C5014      C5015   1.412       .  A
C5014      N5019   1.436       .  S
C5015      C5016   1.405       .  A
C5015      H5020   1.084       .  S
C5016      C5021   1.498       .  S
C5016      C5017   1.419       .  A
C5017      C5018   1.408       .  A
C5017      N5022   1.439       .  S
C5018      H5023   1.084       .  S
N5019      H5039   1.046       .  S
N5019      H5040   1.046       .  S
C5021      C5024   1.405       .  A
C5021      C5028   1.420       .  A
N5022      H5037   1.046       .  S
N5022      H5038   1.043       .  S
C5024      C5025   1.408       .  A
C5024      H5029   1.084       .  S
C5025      C5026   1.413       .  A
C5025      N5030   1.432       .  S
C5026      C5027   1.407       .  A
C5027      C5028   1.409       .  A
C5027      H5031   1.084       .  S
C5028      N5032   1.439       .  S
N5030      H5033   1.046       .  S
N5030      H5034   1.046       .  S
N5032      H5035   1.046       .  S
N5032      H5036   1.043       .  S
