geometry optimzed in LAMMPS
_audit_creation_date              2020-12-01 
_audit_creation_method            'lammps2cif' 
_symmetry_space_group_name_H-M    'P1' 
_symmetry_Int_Tables_number       1 
_symmetry_cell_setting            triclinic 
loop_ 
_symmetry_equiv_pos_as_xyz 
  x,y,z 
_cell_length_a                    59.29865468 
_cell_length_b                    59.21190760599486 
_cell_length_c                    59.40733600468726 
_cell_angle_alpha                 89.96386745149714 
_cell_angle_beta                  90.02002986743763 
_cell_angle_gamma                 90.1689340836237 
loop_ 
_atom_site_label 
_atom_site_type_symbol 
_atom_site_fract_x 
_atom_site_fract_y 
_atom_site_fract_z 
_atom_site_charge 
N1          N  0.20436818  0.76553251  0.73573731    -0.26800
N2          N  0.21463302  0.77854561  0.75066826    -0.34700
C3          C  0.20207172  0.79704993  0.75437100     0.01500
C4          C  0.18300001  0.79584690  0.74100452     0.07600
C5          C  0.18499734  0.77560020  0.72941553    -0.05500
H6          H  0.20676516  0.81067918  0.76556990     0.08200
H7          H  0.17353460  0.76902151  0.71683817     0.09400
Cu8        Cu  0.24568238  0.77112034  0.76487103     0.44200
Cu9        Cu  0.21815258  0.73515129  0.72427717     0.42000
Cu10       Cu  0.26811926  0.71580718  0.75534356     0.43900
N11         N  0.27453248  0.75919948  0.78052866    -0.34200
N12         N  0.28187582  0.73826644  0.77850778    -0.28400
C13         C  0.29910766  0.73511252  0.79296969    -0.04500
C14         C  0.30296483  0.75517522  0.80445965     0.07700
C15         C  0.28719314  0.77008367  0.79582479     0.01500
H16         H  0.30779754  0.71924782  0.79530499     0.09100
H17         H  0.28455518  0.78742093  0.80089183     0.08200
N18         N  0.25481751  0.69957411  0.72724952    -0.35600
N19         N  0.23699189  0.70656482  0.71577630    -0.27800
C20         C  0.23459084  0.69348599  0.69734272    -0.03100
C21         C  0.25163964  0.67755503  0.69731354     0.05500
C22         C  0.26416286  0.68198063  0.71642542     0.03600
H23         H  0.22205917  0.69607414  0.68436440     0.08700
H24         H  0.27963775  0.67376598  0.72146579     0.07600
N25         N  0.76264811  0.85265929  0.08209276    -0.26800
N26         N  0.77216691  0.87219083  0.08734482    -0.34700
C27         C  0.79132609  0.87458309  0.07544396     0.01500
C28         C  0.79387341  0.85568246  0.06205647     0.07600
C29         C  0.77543923  0.84214864  0.06667752    -0.05500
H30         H  0.80294380  0.88861252  0.07704749     0.08200
H31         H  0.77208234  0.82546058  0.06004084     0.09400
Cu32       Cu  0.75993432  0.89374058  0.11193192     0.44200
Cu33       Cu  0.73397315  0.83996025  0.09752118     0.42000
Cu34       Cu  0.71120779  0.87441380  0.14242190     0.43900
N35         N  0.74673305  0.91055634  0.13951266    -0.34200
N36         N  0.72896999  0.90332374  0.15087975    -0.28400
C37         C  0.72664355  0.91586877  0.16960016    -0.04500
C38         C  0.74377594  0.93176120  0.17002759     0.07700
C39         C  0.75611014  0.92798336  0.15062119     0.01500
H40         H  0.71447419  0.91254482  0.18276565     0.09100
H41         H  0.77175777  0.93612372  0.14586202     0.08200
N42         N  0.69828268  0.84324087  0.13329191    -0.35600
N43         N  0.70656358  0.83051422  0.11699622    -0.27800
C44         C  0.69526030  0.81077016  0.11651046    -0.03100
C45         C  0.67913195  0.81126735  0.13327006     0.05500
C46         C  0.68154032  0.83198203  0.14361862     0.03600
H47         H  0.69904189  0.79683827  0.10537463     0.08700
H48         H  0.67235397  0.83808766  0.15811109     0.07600
N49         N  0.84776515  0.24583397  0.59197890    -0.26800
N50         N  0.83296523  0.23058438  0.59891261    -0.34700
C51         C  0.81556079  0.23005726  0.58432906     0.01500
C52         C  0.81959215  0.24561367  0.56731460     0.07600
C53         C  0.84032868  0.25507470  0.57266000    -0.05500
H54         H  0.80047886  0.21998964  0.58661021     0.08200
H55         H  0.84874945  0.26871781  0.56389428     0.09400
Cu56       Cu  0.83603627  0.21266203  0.62904833     0.44200
Cu57       Cu  0.87496048  0.25704746  0.61118916     0.42000
Cu58       Cu  0.87595227  0.23659467  0.66845660     0.43900
N59         N  0.84297274  0.19835856  0.66043769    -0.34200
N60         N  0.85736918  0.20739016  0.67489367    -0.28400
C61         C  0.85809071  0.19448468  0.69353930    -0.04500
C62         C  0.84352123  0.17637225  0.69076682     0.07700
C63         C  0.83420600  0.17939644  0.66954509     0.01500
H64         H  0.86838588  0.19808760  0.70814745     0.09100
H65         H  0.82191503  0.16864106  0.66136703     0.08200
N66         N  0.89530140  0.26375738  0.65721129    -0.35600
N67         N  0.89586655  0.27048362  0.63599716    -0.27800
C68         C  0.91061365  0.28772858  0.63407155    -0.03100
C69         C  0.91963356  0.29229197  0.65514189     0.05500
C70         C  0.90941971  0.27674802  0.66937283     0.03600
H71         H  0.91439743  0.29638490  0.61847771     0.08700
H72         H  0.91205326  0.27500924  0.68731017     0.07600
N73         N  0.93574068  0.78497514  0.96279505    -0.03000
C74         C  0.92281899  0.78447706  0.98189715    -0.00400
C75         C  0.92978027  0.76755403  0.99627285    -0.23300
C76         C  0.94692957  0.75658127  0.98581699    -0.23500
C77         C  0.95068763  0.76757913  0.96566279    -0.00500
H78         H  0.92257779  0.76323275  0.01246044     0.13300
H79         H  0.95584931  0.74200704  0.99223628     0.13300
N80         N  0.06263749  0.92865679  0.68618502    -0.03000
C81         C  0.08163330  0.91560369  0.68418711    -0.00400
C82         C  0.09414284  0.92229845  0.66572586    -0.23300
C83         C  0.08258750  0.93930893  0.65549085    -0.23500
C84         C  0.06361599  0.94335814  0.66831738    -0.00500
H85         H  0.10993408  0.91516749  0.66004138     0.13300
H86         H  0.08764061  0.94810973  0.64032357     0.13300
N87         N  0.79050581  0.06284476  0.83104353    -0.03000
C88         C  0.79064600  0.08213922  0.81813359    -0.00400
C89         C  0.77193051  0.09517432  0.82270854    -0.23300
C90         C  0.76009664  0.08444736  0.83917399    -0.23500
C91         C  0.77126169  0.06456650  0.84383878    -0.00500
H92         H  0.76746491  0.11107459  0.81490730     0.13300
H93         H  0.74453792  0.09027376  0.84669294     0.13300
C94         C  0.90861473  0.93868651  0.82533746     0.03600
C95         C  0.92531572  0.93948610  0.80842797    -0.12500
C96         C  0.94200312  0.92262744  0.80689578     0.01100
C97         C  0.94211309  0.90505250  0.82283209    -0.11100
C98         C  0.92605788  0.90413962  0.84019499     0.03600
C99         C  0.90913315  0.92082915  0.84109890    -0.10500
H100        H  0.92540560  0.95334397  0.79650633     0.09200
H101        H  0.95507099  0.89221117  0.82196771     0.06700
H102        H  0.89650160  0.92004808  0.85425284     0.06600
N103        N  0.49229566  0.52365467  0.34981883    -0.26800
N104        N  0.51164781  0.51383911  0.34474160    -0.34700
C105        C  0.52138392  0.52512890  0.32767139     0.01500
C106        C  0.50746434  0.54279068  0.32168006     0.07600
C107        C  0.48923477  0.54150139  0.33610971    -0.05500
H108        H  0.53786177  0.52139719  0.32082568     0.08200
H109        H  0.47535430  0.55325787  0.33727685     0.09400
Cu110      Cu  0.52502990  0.48669052  0.36227018     0.44200
Cu111      Cu  0.47214487  0.51364207  0.37657927     0.42000
Cu112      Cu  0.49325061  0.46718747  0.41046718     0.43900
N113        N  0.53464443  0.45935229  0.38188179    -0.34200
N114        N  0.52282319  0.45194152  0.39926318    -0.28400
C115        C  0.53340564  0.43398261  0.40824087    -0.04500
C116        C  0.55291164  0.42997790  0.39603788     0.07700
C117        C  0.55313190  0.44643845  0.37946768     0.01500
H118        H  0.52750965  0.42470708  0.42280063     0.09100
H119        H  0.56597731  0.44905675  0.36679504     0.08200
N120        N  0.46423135  0.48537237  0.41820894    -0.35600
N121        N  0.45641637  0.50201609  0.40556877    -0.27800
C122        C  0.43769383  0.51043665  0.41514491    -0.03100
C123        C  0.43352449  0.49856553  0.43473461     0.05500
C124        C  0.45069727  0.48286622  0.43626447     0.03600
H125        H  0.42812722  0.52452726  0.40861824     0.08700
H126        H  0.45333093  0.47075769  0.44964480     0.07600
N127        N  0.63684585  0.99083910  0.97744814    -0.26800
N128        N  0.64423444  0.00685002  0.99113305    -0.34700
C129        C  0.66331924  0.01580246  0.98272983     0.01500
C130        C  0.66821347  0.00523233  0.96256073     0.07600
C131        C  0.65106914  0.98941788  0.95976794    -0.05500
H132        H  0.67253434  0.02960890  0.99036732     0.08200
H133        H  0.64874595  0.97820844  0.94557742     0.09400
Cu134      Cu  0.62705076  0.01795579  0.01938513     0.44200
Cu135      Cu  0.60720472  0.97234078  0.98357750     0.42000
Cu136      Cu  0.57550338  0.98979690  0.03365520     0.43900
N137        N  0.60592360  0.02890912  0.04488335    -0.34200
N138        N  0.58686019  0.01860274  0.05025028    -0.28400
C139        C  0.57649032  0.03046867  0.06657077    -0.04500
C140        C  0.58975974  0.04905044  0.07164393     0.07700
C141        C  0.60821103  0.04759332  0.05755498     0.01500
H142        H  0.56024988  0.02624952  0.07374778     0.09100
H143        H  0.62197258  0.05954988  0.05618693     0.08200
N144        N  0.56649161  0.96270401  0.01321053    -0.35600
N145        N  0.57765094  0.95638463  0.99496611    -0.27800
C146        C  0.56645489  0.93904901  0.98527348    -0.03100
C147        C  0.54746212  0.93428883  0.99805181     0.05500
C148        C  0.54802194  0.94964295  0.01554711     0.03600
H149        H  0.57138107  0.93095747  0.96971930     0.08700
H150        H  0.53551432  0.95164302  0.02864317     0.07600
N151        N  0.29446946  0.53846861  0.07332225    -0.03000
C152        C  0.27603154  0.53739168  0.05940222    -0.00400
C153        C  0.26313099  0.51854576  0.06419827    -0.23300
C154        C  0.27392239  0.50707644  0.08083509    -0.23500
C155        C  0.29265931  0.51966762  0.08668526    -0.00500
H156        H  0.24745320  0.51359394  0.05624129     0.13300
H157        H  0.26815547  0.49159112  0.08867129     0.13300
N158        N  0.57309408  0.67775049  0.20942654    -0.03000
C159        C  0.57493514  0.66516965  0.22868682    -0.00400
C160        C  0.59246143  0.67291400  0.24193805    -0.23300
C161        C  0.60226840  0.69040234  0.23063532    -0.23500
C162        C  0.59010632  0.69333108  0.21104468    -0.00500
H163        H  0.59767686  0.66629797  0.25810750     0.13300
H164        H  0.61675679  0.70010190  0.23613182     0.13300
N165        N  0.41074885  0.81627522  0.94553461    -0.03000
C166        C  0.41513474  0.83776152  0.95269339    -0.00400
C167        C  0.39879489  0.85237245  0.94503141    -0.23300
C168        C  0.38400422  0.83974507  0.93244357    -0.23500
C169        C  0.39200919  0.81775493  0.93209610    -0.00500
H170        H  0.39867266  0.87055212  0.94687505     0.13300
H171        H  0.37038423  0.84643775  0.92232695     0.13300
C172        C  0.45743943  0.66822963  0.08413594     0.03600
C173        C  0.44021622  0.65186192  0.08491055    -0.12500
C174        C  0.42209882  0.65247556  0.06967110     0.01100
C175        C  0.42130326  0.66986725  0.05358319    -0.11100
C176        C  0.43852269  0.68620098  0.05210638     0.03600
C177        C  0.45681213  0.68485328  0.06719845    -0.10500
H178        H  0.44061079  0.63894341  0.09783339     0.09200
H179        H  0.40695923  0.67085215  0.04233572     0.06700
H180        H  0.47019872  0.69730357  0.06632480     0.06600
N181        N  0.99994659  0.15311214  0.49511803    -0.26800
N182        N  0.01272500  0.14633168  0.51205126    -0.34700
C183        C  0.03076009  0.16013863  0.51365042     0.01500
C184        C  0.02918937  0.17660803  0.49709382     0.07600
C185        C  0.00926549  0.17166332  0.48585027    -0.05500
H186        H  0.04442428  0.15787705  0.52550144     0.08200
H187        H  0.00246931  0.18040361  0.47137495     0.09400
Cu188      Cu  0.00525053  0.11813649  0.53173489     0.44200
Cu189      Cu  0.97206950  0.13513565  0.48335074     0.42000
Cu190      Cu  0.95523718  0.08617981  0.51614364     0.43900
N191        N  0.99401964  0.08963981  0.54908629    -0.34200
N192        N  0.97574728  0.07800020  0.54356089    -0.28400
C193        C  0.97394895  0.06000035  0.55738292    -0.04500
C194        C  0.99184483  0.06045700  0.57236151     0.07700
C195        C  0.00425491  0.07939327  0.56654420     0.01500
H196        H  0.96108276  0.04707748  0.55607637     0.09100
H197        H  0.02002253  0.08485964  0.57394633     0.08200
N198        N  0.93988581  0.09560339  0.48591434    -0.35600
N199        N  0.94662736  0.11287620  0.47347735    -0.27800
C200        C  0.93522126  0.11264809  0.45384173    -0.03100
C201        C  0.92034174  0.09450523  0.45394032     0.05500
C202        C  0.92369693  0.08426940  0.47470259     0.03600
H203        H  0.93817795  0.12433379  0.44014511     0.08700
H204        H  0.91555534  0.06911077  0.48087351     0.07600
N205        N  0.69151841  0.31390639  0.44728460    -0.03000
C206        C  0.67953081  0.33374487  0.44742504    -0.00400
C207        C  0.68467014  0.34628602  0.46634802    -0.23300
C208        C  0.70049745  0.33457047  0.47811018    -0.23500
C209        C  0.70423334  0.31470496  0.46658700    -0.00500
H210        H  0.67751169  0.36238536  0.47111731     0.13300
H211        H  0.70812118  0.33968870  0.49386969     0.13300
N212        N  0.53568253  0.18758146  0.18564034    -0.03000
C213        C  0.53240501  0.17558640  0.16617821    -0.00400
C214        C  0.51333101  0.18290809  0.15508424    -0.23300
C215        C  0.50392991  0.19931439  0.16809086    -0.23500
C216        C  0.51791209  0.20237183  0.18646282    -0.00500
H217        H  0.50660902  0.17645227  0.13940540     0.13300
H218        H  0.48850739  0.20834091  0.16443176     0.13300
N219        N  0.80924340  0.02582818  0.31790152    -0.03000
C220        C  0.82785321  0.02256140  0.33119980    -0.00400
C221        C  0.83716371  0.00158199  0.32724316    -0.23300
C222        C  0.82457654  0.99160836  0.31075631    -0.23500
C223        C  0.80750109  0.00646245  0.30537281    -0.00500
H224        H  0.85198181  0.99452366  0.33519771     0.13300
H225        H  0.82770229  0.97528695  0.30319597     0.13300
C226        C  0.68599053  0.19286774  0.32636352     0.03600
C227        C  0.70047336  0.17405599  0.32725125    -0.12500
C228        C  0.69801364  0.15575638  0.31225400     0.01100
C229        C  0.68020831  0.15624616  0.29654838    -0.11100
C230        C  0.66613954  0.17521208  0.29479023     0.03600
C231        C  0.66942226  0.19358644  0.30938744    -0.10500
H232        H  0.71363542  0.17353815  0.33986655     0.09200
H233        H  0.67737544  0.14194116  0.28553007     0.06700
H234        H  0.65859268  0.20822112  0.30790428     0.06600
N235        N  0.32512040  0.37073214  0.30096134    -0.26800
N236        N  0.33808045  0.35477653  0.30960869    -0.34700
C237        C  0.32746777  0.34544587  0.32735972     0.01500
C238        C  0.30671836  0.35582014  0.32996701     0.07600
C239        C  0.30584069  0.37180731  0.31292735    -0.05500
H240        H  0.33403081  0.33154067  0.33717488     0.08200
H241        H  0.29186638  0.38284326  0.30902004     0.09400
Cu242      Cu  0.36871926  0.34470216  0.29574574     0.44200
Cu243      Cu  0.33383043  0.38944695  0.27248046     0.42000
Cu244      Cu  0.38762673  0.37535550  0.24668135     0.43900
N245        N  0.39765328  0.33626645  0.27775044    -0.34200
N246        N  0.40473454  0.34774333  0.25998308    -0.28400
C247        C  0.42282385  0.33726777  0.25118896    -0.04500
C248        C  0.42735382  0.31829405  0.26400172     0.07700
C249        C  0.41099909  0.31810620  0.28063404     0.01500
H250        H  0.43126201  0.34234577  0.23584884     0.09100
H251        H  0.40834104  0.30514615  0.29320691     0.08200
N252        N  0.36608304  0.40018608  0.23441572    -0.35600
N253        N  0.34644729  0.40524608  0.24370406    -0.27800
C254        C  0.33633389  0.42128837  0.23121361    -0.03100
C255        C  0.35027636  0.42654689  0.21328754     0.05500
C256        C  0.36893966  0.41284463  0.21577937     0.03600
H257        H  0.31987545  0.42831047  0.23468288     0.08700
H258        H  0.38332742  0.41183661  0.20463785     0.07600
N259        N  0.08399228  0.63921527  0.88180928    -0.26800
N260        N  0.09733896  0.64909980  0.89669486    -0.34700
C261        C  0.08679121  0.66711229  0.90537255     0.01500
C262        C  0.06585311  0.66865071  0.89544885     0.07600
C263        C  0.06447364  0.65070102  0.88066232    -0.05500
H264        H  0.09341534  0.67761158  0.91874319     0.08200
H265        H  0.05007532  0.64581723  0.87057233     0.09400
Cu266      Cu  0.12786306  0.63627344  0.90712047     0.44200
Cu267      Cu  0.09242534  0.60960261  0.86533976     0.42000
Cu268      Cu  0.14488263  0.58329579  0.88329085     0.43900
N269        N  0.15506974  0.61812353  0.91875125    -0.34200
N270        N  0.16135232  0.59859138  0.91004678    -0.28400
C271        C  0.17820680  0.59007494  0.92254156    -0.04500
C272        C  0.18265257  0.60501859  0.93984196     0.07700
C273        C  0.16766456  0.62256394  0.93704925     0.01500
H274        H  0.18591289  0.57375483  0.91987332     0.09100
H275        H  0.16536748  0.63692687  0.94805023     0.08200
N276        N  0.12396139  0.57026849  0.85850362    -0.35600
N277        N  0.10488648  0.57982010  0.85202532    -0.27800
C278        C  0.09490149  0.56662829  0.83651969    -0.03100
C279        C  0.10831895  0.54791157  0.83313821     0.05500
C280        C  0.12658305  0.55070939  0.84732346     0.03600
H281        H  0.07875020  0.57006780  0.82878543     0.08700
H282        H  0.14043581  0.53911374  0.84977188     0.07600
N283        N  0.16701234  0.29047432  0.43740651    -0.03000
C284        C  0.15403798  0.27128151  0.43642018    -0.00400
C285        C  0.15910592  0.25906005  0.41729189    -0.23300
C286        C  0.17594975  0.27037076  0.40636594    -0.23500
C287        C  0.18037107  0.28971094  0.41859453    -0.00500
H288        H  0.15145934  0.24331507  0.41198981     0.13300
H289        H  0.18392950  0.26524618  0.39080838     0.13300
N290        N  0.31104614  0.56548718  0.55861527    -0.03000
C291        C  0.32832136  0.56681218  0.54328273    -0.00400
C292        C  0.34069092  0.58634317  0.54659863    -0.23300
C293        C  0.33084054  0.59775796  0.56391199    -0.23500
C294        C  0.31304198  0.58468516  0.57136276    -0.00500
H295        H  0.35553746  0.59165846  0.53739137     0.13300
H296        H  0.33649092  0.61368257  0.57089056     0.13300
N297        N  0.05160901  0.40876526  0.72247386    -0.03000
C298        C  0.05683031  0.41284324  0.74445605    -0.00400
C299        C  0.04718522  0.39682840  0.75824367    -0.23300
C300        C  0.03535999  0.38245424  0.74448832    -0.23500
C301        C  0.03733758  0.39046740  0.72258934    -0.00500
H302        H  0.04736740  0.39660172  0.77645645     0.13300
H303        H  0.02421099  0.36911768  0.75018522     0.13300
C304        C  0.17308728  0.41088156  0.55782165     0.03600
C305        C  0.18822134  0.42897271  0.55523485    -0.12500
C306        C  0.18973196  0.44604204  0.57154577     0.01100
C307        C  0.17516328  0.44550944  0.59018540    -0.11100
C308        C  0.15993241  0.42748853  0.59333142     0.03600
C309        C  0.15926888  0.41003731  0.57712375    -0.10500
H310        H  0.19906927  0.42965747  0.54056353     0.09200
H311        H  0.17593871  0.45902865  0.60244716     0.06700
H312        H  0.14792757  0.39584869  0.57945438     0.06600
C313        C  0.06807429  0.41338803  0.70513651     0.01800
C314        C  0.08613967  0.39815239  0.70157295     0.04600
C315        C  0.10195570  0.40224169  0.68437961    -0.11400
C316        C  0.10104612  0.42241576  0.67181725     0.23900
C317        C  0.08436671  0.43862172  0.67689003    -0.12000
C318        C  0.06754785  0.43379295  0.69300889     0.05400
C319        C  0.11608854  0.42534411  0.65187390     0.27800
C320        C  0.13942128  0.42916731  0.65453294    -0.12700
C321        C  0.15388113  0.42869963  0.63564275     0.05900
C322        C  0.14482955  0.42694211  0.61360206    -0.08600
C323        C  0.12116566  0.42489992  0.61108931     0.06700
C324        C  0.10712988  0.42275309  0.63007150    -0.13000
Br325      Br  0.08455123  0.46733652  0.66155495    -0.05100
Br326      Br  0.08800522  0.37027296  0.71856219     0.00500
Br327      Br  0.18609366  0.42871815  0.64045889     0.01000
Br328      Br  0.07558485  0.41535898  0.62617025    -0.03400
Br329      Br  0.04328556  0.45462386  0.69793939     0.01100
Br330      Br  0.12375395  0.37926745  0.67683183    -0.02700
Br331      Br  0.15147547  0.43500225  0.68415908    -0.03600
Br332      Br  0.10723720  0.42679100  0.58193374     0.00400
C333        C  0.20712774  0.46407322  0.56931301     0.01800
C334        C  0.20083516  0.48682235  0.56608410     0.04600
C335        C  0.21752648  0.50377256  0.56446408    -0.11400
C336        C  0.24057590  0.49785486  0.56419185     0.23900
C337        C  0.24678970  0.47501490  0.56623168    -0.12000
C338        C  0.23024323  0.45845554  0.57017363     0.05400
C339        C  0.25841498  0.51555771  0.56279410     0.27800
C340        C  0.26264596  0.52685560  0.54240312    -0.12700
C341        C  0.27916408  0.54397400  0.54137677     0.05900
C342        C  0.29340270  0.54837712  0.56005789    -0.08600
C343        C  0.28960318  0.53613385  0.58025346     0.06700
C344        C  0.27160231  0.52063660  0.58184536    -0.13000
Br345      Br  0.27807182  0.46638727  0.56340764    -0.05100
Br346      Br  0.16942166  0.49474125  0.56331220     0.00500
Br347      Br  0.28009261  0.56269391  0.51501106     0.01000
Br348      Br  0.26492220  0.50614352  0.61027635    -0.03400
Br349      Br  0.23960092  0.42868426  0.57906717     0.01100
Br350      Br  0.20886365  0.53512769  0.56309245    -0.02700
Br351      Br  0.24599419  0.51849159  0.51569937    -0.03600
Br352      Br  0.30969245  0.53856460  0.60551618     0.00400
C353        C  0.17191448  0.39294306  0.54018352     0.01800
C354        C  0.15209427  0.38981788  0.52732087     0.04600
C355        C  0.15087501  0.37250988  0.51111715    -0.11400
C356        C  0.17026646  0.35991804  0.50571638     0.23900
C357        C  0.19058628  0.36418864  0.51725103    -0.12000
C358        C  0.19101840  0.37957753  0.53528423     0.05400
C359        C  0.16924616  0.34202695  0.48815570     0.27800
C360        C  0.17091147  0.31912562  0.49427518    -0.12700
C361        C  0.17130823  0.30229113  0.47756406     0.05900
C362        C  0.16703267  0.30782463  0.45473704    -0.08600
C363        C  0.16378711  0.33083918  0.44904481     0.06700
C364        C  0.16660404  0.34783960  0.46534871    -0.13000
Br365      Br  0.21802051  0.34936659  0.50788078    -0.05100
Br366      Br  0.12721675  0.41034952  0.53013794     0.00500
Br367      Br  0.18054314  0.27250569  0.48630035     0.01000
Br368      Br  0.16756571  0.37919426  0.45633844    -0.03400
Br369      Br  0.21748261  0.38103092  0.55391229     0.01100
Br370      Br  0.12253783  0.36594155  0.49639986    -0.02700
Br371      Br  0.17283184  0.31080822  0.52570195    -0.03600
Br372      Br  0.15316024  0.33960673  0.41978419     0.00400
C373        C  0.10303170  0.52816821  0.81896260     0.01800
C374        C  0.09755251  0.50730853  0.82906380     0.04600
C375        C  0.09158450  0.48873441  0.81555277    -0.11400
C376        C  0.09084475  0.49104337  0.79194665     0.23900
C377        C  0.09657728  0.51179346  0.78184719    -0.12000
C378        C  0.10272247  0.53033147  0.79533477     0.05400
C379        C  0.08276016  0.47200664  0.77787086     0.27800
C380        C  0.09779599  0.45520520  0.77061245    -0.12700
C381        C  0.08965460  0.43616251  0.75888638     0.05900
C382        C  0.06648685  0.43427359  0.75353451    -0.08600
C383        C  0.05167452  0.45171970  0.76024024     0.06700
C384        C  0.05974497  0.47035592  0.77251195    -0.13000
Br385      Br  0.09560042  0.51475543  0.74952460    -0.05100
Br386      Br  0.09689545  0.50450301  0.86144237     0.00500
Br387      Br  0.11029941  0.41230436  0.75179886     0.01000
Br388      Br  0.03915181  0.49331669  0.78298451    -0.03400
Br389      Br  0.11104769  0.55859865  0.78143473     0.01100
Br390      Br  0.08382983  0.46022620  0.82933032    -0.02700
Br391      Br  0.12947823  0.45814355  0.77751756    -0.03600
Br392      Br  0.01994066  0.44988025  0.75387793     0.00400
C393        C  0.19709026  0.30676942  0.41036239     0.01800
C394        C  0.19430904  0.31592390  0.38843240     0.04600
C395        C  0.21193375  0.32801312  0.37810913    -0.11400
C396        C  0.23292960  0.33010780  0.38890198     0.23900
C397        C  0.23548369  0.32223853  0.41113493    -0.12000
C398        C  0.21766794  0.31053318  0.42184808     0.05400
C399        C  0.25296997  0.33675972  0.37528495     0.27800
C400        C  0.26293480  0.32056000  0.36106181    -0.12700
C401        C  0.28017514  0.32686723  0.34603911     0.05900
C402        C  0.28837483  0.34930074  0.34579323    -0.08600
C403        C  0.27881614  0.36539147  0.36054660     0.06700
C404        C  0.26095667  0.35918411  0.37503640    -0.13000
Br405      Br  0.26410752  0.32605635  0.42611996    -0.05100
Br406      Br  0.16699083  0.31056988  0.37133255     0.00500
Br407      Br  0.29101950  0.30497119  0.32455315     0.01000
Br408      Br  0.24705267  0.38134883  0.39427505    -0.03400
Br409      Br  0.22304904  0.29699825  0.45077654     0.01100
Br410      Br  0.20805570  0.34037448  0.34825227    -0.02700
Br411      Br  0.25245818  0.28962277  0.36187353    -0.03600
Br412      Br  0.29051075  0.39580838  0.36142992     0.00400
C413        C  0.71409326  0.13620990  0.31307896     0.01800
C414        C  0.71861352  0.12498843  0.33368269     0.04600
C415        C  0.73521838  0.10800352  0.33477088    -0.11400
C416        C  0.74576468  0.10024527  0.31497472     0.23900
C417        C  0.74030031  0.11033581  0.29419876    -0.12000
C418        C  0.72550881  0.12894645  0.29338228     0.05400
C419        C  0.76230653  0.08125143  0.31597900     0.27800
C420        C  0.78554345  0.08532326  0.31308868    -0.12700
C421        C  0.80099987  0.06720187  0.31308118     0.05900
C422        C  0.79365230  0.04487094  0.31792941    -0.08600
C423        C  0.77041221  0.04135342  0.32235945     0.06700
C424        C  0.75478629  0.05908050  0.32005603    -0.13000
Br425      Br  0.75288697  0.09828900  0.26673154    -0.05100
Br426      Br  0.70111883  0.13144318  0.36033516     0.00500
Br427      Br  0.83165590  0.07361451  0.30482230     0.01000
Br428      Br  0.72282164  0.05293513  0.32206393    -0.03400
Br429      Br  0.72251455  0.14517550  0.26535395     0.01100
Br430      Br  0.74386756  0.09551466  0.36354029    -0.02700
Br431      Br  0.79614549  0.11596825  0.30917541    -0.03600
Br432      Br  0.75969251  0.01312724  0.33412389     0.00400
C433        C  0.51266709  0.22012765  0.20352884     0.01800
C434        C  0.50604408  0.21425232  0.22564713     0.04600
C435        C  0.49522394  0.23028272  0.23953283    -0.11400
C436        C  0.49050194  0.25207142  0.23127829     0.23900
C437        C  0.49845135  0.25848995  0.20990912    -0.12000
C438        C  0.50909178  0.24260447  0.19594337     0.05400
C439        C  0.47430455  0.26714949  0.24312418     0.27800
C440        C  0.45095612  0.26416921  0.23950427    -0.12700
C441        C  0.43553323  0.28047221  0.24718093     0.05900
C442        C  0.44336582  0.30002897  0.25825655    -0.08600
C443        C  0.46661231  0.30262397  0.26261627     0.06700
C444        C  0.48201731  0.28601990  0.25539360    -0.13000
Br445      Br  0.49314616  0.28881791  0.19908636    -0.05100
Br446      Br  0.50841765  0.18357967  0.23598096     0.00500
Br447      Br  0.40374814  0.27668616  0.24120773     0.01000
Br448      Br  0.51376579  0.28928954  0.26159823    -0.03400
Br449      Br  0.51677974  0.25159351  0.16551053     0.01100
Br450      Br  0.48534870  0.22213629  0.26938729    -0.02700
Br451      Br  0.44019411  0.23826709  0.22288596    -0.03600
Br452      Br  0.47735011  0.32926557  0.27790886     0.00400
C453        C  0.55447260  0.18539585  0.20135018     0.01800
C454        C  0.56849026  0.20413624  0.20649688     0.04600
C455        C  0.58619462  0.20206022  0.22222522    -0.11400
C456        C  0.59225517  0.18066368  0.23063542     0.23900
C457        C  0.57957362  0.16162239  0.22413944    -0.12000
C458        C  0.55984203  0.16423486  0.21118076     0.05400
C459        C  0.61142969  0.17830567  0.24682708     0.27800
C460        C  0.63388028  0.18193110  0.23969670    -0.12700
C461        C  0.65166488  0.18163981  0.25547997     0.05900
C462        C  0.64745424  0.17566237  0.27807499    -0.08600
C463        C  0.62525056  0.17047179  0.28483946     0.06700
C464        C  0.60720433  0.17275298  0.26957502    -0.13000
Br465      Br  0.58953946  0.13177888  0.23267582    -0.05100
Br466      Br  0.56558692  0.23222235  0.19061584     0.00500
Br467      Br  0.68165224  0.19029898  0.24636049     0.01000
Br468      Br  0.57661196  0.16889236  0.28008723    -0.03400
Br469      Br  0.53927899  0.13915983  0.20978790     0.01100
Br470      Br  0.60202672  0.22870010  0.23249724    -0.02700
Br471      Br  0.64031714  0.18679638  0.20821261    -0.03600
Br472      Br  0.61962741  0.15949692  0.31486389     0.00400
C473        C  0.68762921  0.21131141  0.34367496     0.01800
C474        C  0.70853660  0.22197716  0.34847892     0.04600
C475        C  0.71019431  0.23795404  0.36606921    -0.11400
C476        C  0.69065689  0.24529676  0.37743907     0.23900
C477        C  0.66961249  0.23584087  0.37168133    -0.12000
C478        C  0.66828023  0.21806464  0.35597932     0.05400
C479        C  0.69202604  0.26278861  0.39556839     0.27800
C480        C  0.68810989  0.25679602  0.41818669    -0.12700
C481        C  0.68675765  0.27360183  0.43497424     0.05900
C482        C  0.69176775  0.29650021  0.42987092    -0.08600
C483        C  0.69737200  0.30199970  0.40731177     0.06700
C484        C  0.69621590  0.28555919  0.39016717    -0.13000
Br485      Br  0.64240278  0.24757923  0.38519603    -0.05100
Br486      Br  0.73483653  0.21602097  0.33026854     0.00500
Br487      Br  0.67579381  0.26477320  0.46408153     0.01000
Br488      Br  0.69980813  0.29434907  0.35904125    -0.03400
Br489      Br  0.64007031  0.20199998  0.35326770     0.01100
Br490      Br  0.73935195  0.24949929  0.37495016    -0.02700
Br491      Br  0.68448818  0.22531494  0.42610727    -0.03600
Br492      Br  0.70891359  0.33128589  0.39961720     0.00400
C493        C  0.83854016  0.03847934  0.34743733     0.01800
C494        C  0.82859666  0.04256575  0.36861829     0.04600
C495        C  0.84071302  0.05423901  0.38546295    -0.11400
C496        C  0.86302797  0.06145935  0.38144664     0.23900
C497        C  0.87289104  0.05774051  0.36023969    -0.12000
C498        C  0.86102354  0.04577071  0.34354456     0.05400
C499        C  0.87723587  0.07017273  0.40024980     0.27800
C500        C  0.87707713  0.09321072  0.40607775    -0.12700
C501        C  0.89088347  0.10121747  0.42376305     0.05900
C502        C  0.90571696  0.08632872  0.43512940    -0.08600
C503        C  0.90644385  0.06338179  0.42846171     0.06700
C504        C  0.89174316  0.05526434  0.41168090    -0.13000
Br505      Br  0.90329430  0.06808025  0.35459663    -0.05100
Br506      Br  0.79995620  0.02911083  0.37596818     0.00500
Br507      Br  0.88852693  0.13241599  0.43277953     0.01000
Br508      Br  0.89146126  0.02351767  0.40414200    -0.03400
Br509      Br  0.87653797  0.03800411  0.31593011     0.01100
Br510      Br  0.82739752  0.05904454  0.41467431    -0.02700
Br511      Br  0.85799400  0.11369709  0.38953855    -0.03600
Br512      Br  0.92888366  0.04314111  0.44057352     0.00400
C513        C  0.04639472  0.19401571  0.49101982     0.01800
C514        C  0.05433948  0.19569573  0.46860242     0.04600
C515        C  0.07079996  0.21189124  0.46288602    -0.11400
C516        C  0.08019166  0.22599674  0.47954461     0.23900
C517        C  0.07237050  0.22448553  0.50186283    -0.12000
C518        C  0.05538901  0.20871436  0.50758618     0.05400
C519        C  0.10007500  0.24027657  0.47367398     0.27800
C520        C  0.12150394  0.23022633  0.47329210    -0.12700
C521        C  0.13949314  0.24092880  0.46212051     0.05900
C522        C  0.13676128  0.26282745  0.45273037    -0.08600
C523        C  0.11562913  0.27365156  0.45486553     0.06700
C524        C  0.09729379  0.26227719  0.46508631    -0.13000
Br525      Br  0.08551302  0.24369720  0.52458194    -0.05100
Br526      Br  0.04468433  0.17446913  0.44583332     0.00500
Br527      Br  0.16714514  0.22411242  0.45792362     0.01000
Br528      Br  0.06779223  0.27589370  0.46574157    -0.03400
Br529      Br  0.04435849  0.20772134  0.53812632     0.01100
Br530      Br  0.08134626  0.21424165  0.43218263    -0.02700
Br531      Br  0.12559760  0.20076750  0.48668344    -0.03600
Br532      Br  0.11056317  0.30257709  0.44106866     0.00400
C533        C  0.41543360  0.79714549  0.95992872     0.01800
C534        C  0.40144182  0.79272772  0.97880065     0.04600
C535        C  0.40565250  0.77395627  0.99271043    -0.11400
C536        C  0.42504162  0.76067762  0.98931586     0.23900
C537        C  0.43958516  0.76569846  0.97117090    -0.12000
C538        C  0.43426648  0.78327792  0.95604050     0.05400
C539        C  0.42995960  0.74152047  0.00490421     0.27800
C540        C  0.43660227  0.74588720  0.02726082    -0.12700
C541        C  0.43862929  0.72803596  0.04283491     0.05900
C542        C  0.43659122  0.70528419  0.03558586    -0.08600
C543        C  0.43153715  0.70098424  0.01262932     0.06700
C544        C  0.42697441  0.71900683  0.99778534    -0.13000
Br545      Br  0.46709056  0.74881127  0.96739493    -0.05100
Br546      Br  0.37508156  0.81105196  0.98460070     0.00500
Br547      Br  0.44194700  0.73545514  0.07434947     0.01000
Br548      Br  0.41554626  0.71289360  0.96793901    -0.03400
Br549      Br  0.45225271  0.78777487  0.92958564     0.01100
Br550      Br  0.38422858  0.76575601  0.01584968    -0.02700
Br551      Br  0.44261869  0.77658388  0.03659316    -0.03600
Br552      Br  0.43183774  0.67057657  0.00082790     0.00400
C553        C  0.55656334  0.67568903  0.19129767     0.01800
C554        C  0.54313609  0.69443428  0.18496175     0.04600
C555        C  0.52915708  0.69343423  0.16581459    -0.11400
C556        C  0.52581171  0.67285248  0.15449685     0.23900
C557        C  0.53795927  0.65368293  0.16141095    -0.12000
C558        C  0.55407824  0.65535160  0.17884982     0.05400
C559        C  0.50848685  0.67117344  0.13630391     0.27800
C560        C  0.48540190  0.67140232  0.14194992    -0.12700
C561        C  0.46885430  0.67110107  0.12493585     0.05900
C562        C  0.47516011  0.66893121  0.10204862    -0.08600
C563        C  0.49834489  0.66791891  0.09648143     0.06700
C564        C  0.51490646  0.66976072  0.11348274    -0.13000
Br565      Br  0.53219731  0.62498406  0.14702427    -0.05100
Br566      Br  0.54119962  0.72080565  0.20358979     0.00500
Br567      Br  0.43762547  0.67519970  0.13325071     0.01000
Br568      Br  0.54645493  0.67085940  0.10555248    -0.03400
Br569      Br  0.57353618  0.62999722  0.18374804     0.01100
Br570      Br  0.51451241  0.72041131  0.15487691    -0.02700
Br571      Br  0.47645421  0.67206407  0.17321932    -0.03600
Br572      Br  0.50760082  0.66299667  0.06573155     0.00400
C573        C  0.19782079  0.60116424  0.95902524     0.01800
C574        C  0.18957259  0.59048945  0.97855390     0.04600
C575        C  0.20460219  0.58415531  0.99571011    -0.11400
C576        C  0.22784491  0.58878046  0.99345793     0.23900
C577        C  0.23584542  0.60066331  0.97452507    -0.12000
C578        C  0.22084442  0.60669609  0.95721377     0.05400
C579        C  0.24399024  0.57785117  0.00903143     0.27800
C580        C  0.24937857  0.58766406  0.02991278    -0.12700
C581        C  0.26171140  0.57526651  0.04602751     0.05900
C582        C  0.26905739  0.55309540  0.04108444    -0.08600
C583        C  0.26436098  0.54384013  0.01951275     0.06700
C584        C  0.25208204  0.55626863  0.00360363    -0.13000
Br585      Br  0.26757647  0.60726135  0.97178750    -0.05100
Br586      Br  0.15788392  0.58337993  0.98116428     0.00500
Br587      Br  0.26531337  0.58767956  0.07570025     0.01000
Br588      Br  0.24465335  0.54301058  0.97475945    -0.03400
Br589      Br  0.23189042  0.62156072  0.93050482     0.01100
Br590      Br  0.19366289  0.56759804  0.02151922    -0.02700
Br591      Br  0.23832608  0.61748996  0.03680800    -0.03600
Br592      Br  0.27274481  0.51315704  0.01191780     0.00400
C593        C  0.34549111  0.44236078  0.19462686     0.01800
C594        C  0.35134923  0.46536814  0.19656760     0.04600
C595        C  0.34564816  0.48066277  0.17930349    -0.11400
C596        C  0.33443169  0.47290310  0.15987559     0.23900
C597        C  0.32916588  0.44975787  0.15765205    -0.12000
C598        C  0.33453771  0.43455536  0.17506143     0.05400
C599        C  0.32605125  0.48913557  0.14273312     0.27800
C600        C  0.30439036  0.49833054  0.14528863    -0.12700
C601        C  0.29444382  0.51036765  0.12753871     0.05900
C602        C  0.30610223  0.51329797  0.10686682    -0.08600
C603        C  0.32841951  0.50525528  0.10488759     0.06700
C604        C  0.33845519  0.49346267  0.12295540    -0.13000
Br605      Br  0.31383520  0.43908823  0.13100405    -0.05100
Br606      Br  0.36687412  0.47591455  0.22307457     0.00500
Br607      Br  0.26399867  0.52158418  0.13138526     0.01000
Br608      Br  0.36869223  0.48189219  0.12029762    -0.03400
Br609      Br  0.32626995  0.40313003  0.17244815     0.01100
Br610      Br  0.35237021  0.51237730  0.18247416    -0.02700
Br611      Br  0.28767309  0.49295016  0.17269662    -0.03600
Br612      Br  0.34438576  0.50772201  0.07679832     0.00400
C613        C  0.40353318  0.63539210  0.07093740     0.01800
C614        C  0.38088275  0.64239790  0.07359385     0.04600
C615        C  0.36322057  0.62643900  0.07298844    -0.11400
C616        C  0.36804562  0.60316886  0.07185559     0.23900
C617        C  0.39066887  0.59601536  0.07056484    -0.12000
C618        C  0.40826376  0.61203608  0.06914441     0.05400
C619        C  0.34929955  0.58629030  0.07226966     0.27800
C620        C  0.33757675  0.58194367  0.09240589    -0.12700
C621        C  0.31871113  0.56738726  0.09249774     0.05900
C622        C  0.31278170  0.55496422  0.07294370    -0.08600
C623        C  0.32571375  0.55839071  0.05313598     0.06700
C624        C  0.34301280  0.57476954  0.05252499    -0.13000
Br625      Br  0.39751054  0.56415813  0.07113733    -0.05100
Br626      Br  0.37385810  0.67366185  0.07959749     0.00500
Br627      Br  0.30033685  0.56653794  0.11911581     0.01000
Br628      Br  0.35828432  0.58144940  0.02455596    -0.03400
Br629      Br  0.43860600  0.60174530  0.06346162     0.01100
Br630      Br  0.33225550  0.63645658  0.07336084    -0.02700
Br631      Br  0.34782000  0.59572965  0.12006094    -0.03600
Br632      Br  0.32206634  0.53911914  0.02741225     0.00400
C633        C  0.43709134  0.84627479  0.96184793     0.01800
C634        C  0.43891469  0.85347380  0.98448816     0.04600
C635        C  0.45771538  0.86631532  0.99164618    -0.11400
C636        C  0.47485073  0.87213197  0.97628087     0.23900
C637        C  0.47368027  0.86415397  0.95403937    -0.12000
C638        C  0.45480225  0.85165155  0.94676176     0.05400
C639        C  0.49323377  0.88806950  0.98281794     0.27800
C640        C  0.49085101  0.91137236  0.97846931    -0.12700
C641        C  0.50858904  0.92643716  0.98348363     0.05900
C642        C  0.52891692  0.91829984  0.99271483    -0.08600
C643        C  0.53125261  0.89502544  0.99721056     0.06700
C644        C  0.51343401  0.87995257  0.99230845    -0.13000
Br645      Br  0.49759765  0.87158199  0.93319973    -0.05100
Br646      Br  0.41524108  0.84710738  0.00563790     0.00500
Br647      Br  0.50523312  0.95823842  0.97723017     0.01000
Br648      Br  0.51659189  0.84812146  0.99835384    -0.03400
Br649      Br  0.45253051  0.84435252  0.91535731     0.01100
Br650      Br  0.45964347  0.87700154  0.02226368    -0.02700
Br651      Br  0.46330568  0.92256443  0.96528684    -0.03600
Br652      Br  0.55873559  0.88388611  0.01044348     0.00400
C653        C  0.58447531  0.06772142  0.08721711     0.01800
C654        C  0.59111860  0.06650447  0.10996125     0.04600
C655        C  0.58627513  0.08445886  0.12473374    -0.11400
C656        C  0.57455334  0.10354971  0.11682429     0.23900
C657        C  0.56818069  0.10486592  0.09398216    -0.12000
C658        C  0.57307612  0.08696341  0.07923119     0.05400
C659        C  0.56602384  0.12078076  0.13284012     0.27800
C660        C  0.54470058  0.11746622  0.14262207    -0.12700
C661        C  0.53418817  0.13512975  0.15429711     0.05900
C662        C  0.54550323  0.15603929  0.15746365    -0.08600
C663        C  0.56735148  0.15898488  0.14841950     0.06700
C664        C  0.57757771  0.14135267  0.13613223    -0.13000
Br665      Br  0.55195001  0.13093071  0.08316356    -0.05100
Br666      Br  0.60616991  0.03987234  0.12095119     0.00500
Br667      Br  0.50350973  0.13069900  0.16467946     0.01000
Br668      Br  0.60678324  0.14568745  0.12250639    -0.03400
Br669      Br  0.56337235  0.08837110  0.04826058     0.01100
Br670      Br  0.59499468  0.08275991  0.15595215    -0.02700
Br671      Br  0.52929056  0.08891171  0.13876385    -0.03600
Br672      Br  0.58209329  0.18794878  0.15008835     0.00400
C673        C  0.41549454  0.50319684  0.45124998     0.01800
C674        C  0.42034190  0.51586905  0.47072126     0.04600
C675        C  0.40278856  0.52242121  0.48522510    -0.11400
C676        C  0.38030999  0.51607394  0.48049910     0.23900
C677        C  0.37558798  0.50261023  0.46150776    -0.12000
C678        C  0.39314791  0.49632011  0.44681591     0.05400
C679        C  0.36177919  0.52559016  0.49444565     0.27800
C680        C  0.35699016  0.51649818  0.51580612    -0.12700
C681        C  0.34418570  0.52897702  0.53147905     0.05900
C682        C  0.33519758  0.55028882  0.52551719    -0.08600
C683        C  0.33855464  0.55833889  0.50320361     0.06700
C684        C  0.35173048  0.54601388  0.48784294    -0.13000
Br685      Br  0.34497290  0.49352635  0.45532179    -0.05100
Br686      Br  0.45090056  0.52533180  0.47686510     0.00500
Br687      Br  0.34285163  0.51836235  0.56198676     0.01000
Br688      Br  0.35807564  0.55822731  0.45831631    -0.03400
Br689      Br  0.38664994  0.47857794  0.42037652     0.01100
Br690      Br  0.40935551  0.54122456  0.51097928    -0.02700
Br691      Br  0.36994799  0.48780538  0.52411214    -0.03600
Br692      Br  0.32752169  0.58766300  0.49396470     0.00400
C693        C  0.57054154  0.41278437  0.40062156     0.01800
C694        C  0.57721361  0.39742458  0.38366708     0.04600
C695        C  0.59468399  0.38182525  0.38781458    -0.11400
C696        C  0.60515531  0.38106274  0.40907283     0.23900
C697        C  0.59793841  0.39580226  0.42625130    -0.12000
C698        C  0.58108347  0.41192116  0.42193050     0.05400
C699        C  0.62499991  0.36624999  0.41322622     0.27800
C700        C  0.62211415  0.34404575  0.42123210    -0.12700
C701        C  0.64064838  0.33203112  0.43014312     0.05900
C702        C  0.66224665  0.34221989  0.43117348    -0.08600
C703        C  0.66511788  0.36419511  0.42190580     0.06700
C704        C  0.64672502  0.37574555  0.41241357    -0.13000
Br705      Br  0.61162195  0.39414602  0.45572455    -0.05100
Br706      Br  0.56206792  0.39718893  0.35491732     0.00500
Br707      Br  0.63524826  0.30328319  0.44419216     0.01000
Br708      Br  0.65073600  0.40567438  0.39999653    -0.03400
Br709      Br  0.57398848  0.43397550  0.44478813     0.01100
Br710      Br  0.60467620  0.36171915  0.36435922    -0.02700
Br711      Br  0.59225156  0.33102282  0.42178074    -0.03600
Br712      Br  0.69346147  0.38028104  0.42474456     0.00400
C713        C  0.51327633  0.56140693  0.30628180     0.01800
C714        C  0.50743313  0.56015137  0.28332878     0.04600
C715        C  0.51497746  0.57693019  0.26828298    -0.11400
C716        C  0.52851710  0.59481309  0.27620418     0.23900
C717        C  0.53388508  0.59633121  0.29927529    -0.12000
C718        C  0.52607591  0.57976958  0.31432387     0.05400
C719        C  0.53839124  0.61140476  0.26032744     0.27800
C720        C  0.55993066  0.60736836  0.25136036    -0.12700
C721        C  0.57150325  0.62470282  0.24005468     0.05900
C722        C  0.56090533  0.64580220  0.23617831    -0.08600
C723        C  0.53899508  0.64950253  0.24467011     0.06700
C724        C  0.52779658  0.63233461  0.25674536    -0.13000
Br725      Br  0.55274225  0.62067449  0.31006001    -0.05100
Br726      Br  0.48953700  0.53518292  0.27253267     0.00500
Br727      Br  0.60285771  0.61999176  0.23220840     0.01000
Br728      Br  0.49876009  0.63798784  0.27024250    -0.03400
Br729      Br  0.53324422  0.58198910  0.34594051     0.01100
Br730      Br  0.50747729  0.57520314  0.23675054    -0.02700
Br731      Br  0.57423944  0.57849265  0.25621100    -0.03600
Br732      Br  0.52573444  0.67907607  0.24325485     0.00400
C733        C  0.68646957  0.01134529  0.94642060     0.01800
C734        C  0.70194264  0.99488754  0.93884061     0.04600
C735        C  0.71863789  0.00061240  0.92284667    -0.11400
C736        C  0.72037039  0.02292035  0.91476713     0.23900
C737        C  0.70560922  0.03957847  0.92307172    -0.12000
C738        C  0.68848564  0.03378848  0.93847237     0.05400
C739        C  0.73575948  0.02869309  0.89573374     0.27800
C740        C  0.75808974  0.03596505  0.89962916    -0.12700
C741        C  0.77094747  0.04550970  0.88193238     0.05900
C742        C  0.76133388  0.04828167  0.86033286    -0.08600
C743        C  0.73903479  0.04029164  0.85649883     0.06700
C744        C  0.72677232  0.02981342  0.87386857    -0.13000
Br745      Br  0.70850941  0.07037185  0.91264790    -0.05100
Br746      Br  0.70077790  0.96461434  0.95078738     0.00500
Br747      Br  0.80045721  0.05752168  0.88826178     0.01000
Br748      Br  0.69673684  0.01836531  0.86822739    -0.03400
Br749      Br  0.66676059  0.05647368  0.94701962     0.01100
Br750      Br  0.73885086  0.97788758  0.91146679    -0.02700
Br751      Br  0.77025439  0.03444930  0.92968857    -0.03600
Br752      Br  0.72393915  0.04556781  0.82804052     0.00400
C753        C  0.89089052  0.95676849  0.82667329     0.01800
C754        C  0.87609551  0.96069898  0.80839767     0.04600
C755        C  0.86092616  0.97903779  0.80881307    -0.11400
C756        C  0.85806155  0.99181942  0.82866781     0.23900
C757        C  0.87156931  0.98682249  0.84756905    -0.12000
C758        C  0.88879122  0.97048851  0.84606398     0.05400
C759        C  0.84062574  0.01010336  0.82981530     0.27800
C760        C  0.84702051  0.03294104  0.83215228    -0.12700
C761        C  0.83047415  0.04983642  0.83470867     0.05900
C762        C  0.80732367  0.04484721  0.83131201    -0.08600
C763        C  0.80117056  0.02194802  0.82771607     0.06700
C764        C  0.81749619  0.00467858  0.82874158    -0.13000
Br765      Br  0.86605938  0.00190226  0.87586922    -0.05100
Br766      Br  0.87491965  0.93992544  0.78352865     0.00500
Br767      Br  0.83990089  0.07892208  0.84549645     0.01000
Br768      Br  0.80808292  0.97339682  0.82906950    -0.03400
Br769      Br  0.91033587  0.96845905  0.87012652     0.01100
Br770      Br  0.84441537  0.98694149  0.78190739    -0.02700
Br771      Br  0.87853894  0.04127597  0.83135089    -0.03600
Br772      Br  0.77125166  0.01366123  0.81854455     0.00400
C773        C  0.04779261  0.96194142  0.66198089     0.01800
C774        C  0.02600797  0.95706918  0.65352759     0.04600
C775        C  0.01388051  0.97365117  0.64145317    -0.11400
C776        C  0.02336338  0.99517261  0.63775622     0.23900
C777        C  0.04416546  0.00070256  0.64769408    -0.12000
C778        C  0.05663619  0.98410882  0.65915916     0.05400
C779        C  0.01350699  0.01078891  0.62071062     0.27800
C780        C  0.02173178  0.01027003  0.59842117    -0.12700
C781        C  0.01424800  0.02622609  0.58252800     0.05900
C782        C  0.99841913  0.04278209  0.58875189    -0.08600
C783        C  0.98970416  0.04294985  0.61084371     0.06700
C784        C  0.99726500  0.02700120  0.62681926    -0.13000
Br785      Br  0.05625243  0.03082150  0.64405380    -0.05100
Br786      Br  0.01391688  0.92696331  0.65529995     0.00500
Br787      Br  0.02590128  0.02559813  0.55220988     0.01000
Br788      Br  0.98596145  0.02763303  0.65722086    -0.03400
Br789      Br  0.08693783  0.99162370  0.66886975     0.01100
Br790      Br  0.98495801  0.96652684  0.62835052    -0.02700
Br791      Br  0.04377101  0.98792924  0.58984323    -0.03600
Br792      Br  0.96791441  0.06548001  0.61931229     0.00400
C793        C  0.95983471  0.92354337  0.78905233     0.01800
C794        C  0.98292011  0.92463357  0.79508299     0.04600
C795        C  0.99978183  0.92420136  0.77833495    -0.11400
C796        C  0.99381210  0.92435542  0.75536224     0.23900
C797        C  0.97086033  0.92404795  0.74924962    -0.12000
C798        C  0.95400883  0.92274389  0.76595291     0.05400
C799        C  0.01163707  0.92530391  0.73763373     0.27800
C800        C  0.02293845  0.94573172  0.73317280    -0.12700
C801        C  0.04041266  0.94653842  0.71712264     0.05900
C802        C  0.04538433  0.92744639  0.70362264    -0.08600
C803        C  0.03317902  0.90718416  0.70758763     0.06700
C804        C  0.01718032  0.90590735  0.72513269    -0.13000
Br805      Br  0.96257759  0.92574467  0.71783899    -0.05100
Br806      Br  0.99168115  0.92784086  0.82623188     0.00500
Br807      Br  0.05874542  0.97329267  0.71587709     0.01000
Br808      Br  0.00276373  0.87749212  0.73222501    -0.03400
Br809      Br  0.92319724  0.91819475  0.75682522     0.01100
Br810      Br  0.03120229  0.92313804  0.78677802    -0.02700
Br811      Br  0.01417430  0.97278980  0.74904184    -0.03600
Br812      Br  0.03639474  0.88152400  0.68805655     0.00400
C813        C  0.96858873  0.75944404  0.95022792     0.01800
C814        C  0.99093597  0.75754312  0.95865157     0.04600
C815        C  0.00700823  0.74470548  0.94702763    -0.11400
C816        C  0.00058537  0.73226844  0.92795535     0.23900
C817        C  0.97861902  0.73422810  0.91926453    -0.12000
C818        C  0.96271364  0.74803455  0.93017128     0.05400
C819        C  0.01633032  0.71543680  0.91850623     0.27800
C820        C  0.03017386  0.72111626  0.90010780    -0.12700
C821        C  0.04593531  0.70542247  0.89199377     0.05900
C822        C  0.04777419  0.68407837  0.90225167    -0.08600
C823        C  0.03360417  0.67819767  0.92034639     0.06700
C824        C  0.01797158  0.69392323  0.92857799    -0.13000
Br825      Br  0.96995479  0.71631938  0.89350441    -0.05100
Br826      Br  0.99935745  0.77019076  0.98755353     0.00500
Br827      Br  0.06539772  0.71323689  0.86718234     0.01000
Br828      Br  0.99933888  0.68633621  0.95415911    -0.03400
Br829      Br  0.93219120  0.74829555  0.91926713     0.01100
Br830      Br  0.03761134  0.74274600  0.95805564    -0.02700
Br831      Br  0.02798934  0.75067864  0.88667895    -0.03600
Br832      Br  0.03601007  0.64876066  0.93413223     0.00400
C833        C  0.92758441  0.88615652  0.85788273     0.01800
C834        C  0.92553369  0.86303421  0.85220511     0.04600
C835        C  0.92768425  0.84623276  0.86897670    -0.11400
C836        C  0.93025901  0.85235813  0.89180523     0.23900
C837        C  0.93190590  0.87541351  0.89751792    -0.12000
C838        C  0.93190884  0.89203745  0.88053549     0.05400
C839        C  0.93176256  0.83462201  0.90972111     0.27800
C840        C  0.91250927  0.82221772  0.91611378    -0.12700
C841        C  0.91415149  0.80479881  0.93227792     0.05900
C842        C  0.93454461  0.80122696  0.94429576    -0.08600
C843        C  0.95350172  0.81472445  0.93852502     0.06700
C844        C  0.95241889  0.83030201  0.92057392    -0.13000
Br845      Br  0.93394282  0.88431581  0.92873791    -0.05100
Br846      Br  0.91953231  0.85418714  0.82152449     0.00500
Br847      Br  0.88864799  0.78506473  0.93602753     0.01000
Br848      Br  0.97936109  0.84596793  0.91084875    -0.03400
Br849      Br  0.94065999  0.92236645  0.88819221     0.01100
Br850      Br  0.92767931  0.81471949  0.86067766    -0.02700
Br851      Br  0.88361548  0.82964350  0.90306470    -0.03600
Br852      Br  0.98034552  0.81452158  0.95656039     0.00400
C853        C  0.80736360  0.09005681  0.80095885     0.01800
C854        C  0.81639303  0.11222146  0.80322524     0.04600
C855        C  0.82575969  0.12347641  0.78455821    -0.11400
C856        C  0.82563957  0.11318210  0.76325437     0.23900
C857        C  0.81849499  0.09056734  0.76118711    -0.12000
C858        C  0.80929613  0.07902803  0.77992632     0.05400
C859        C  0.82998046  0.12731429  0.74289402     0.27800
C860        C  0.81219333  0.14002546  0.73353322    -0.12700
C861        C  0.81641024  0.15550611  0.71597728     0.05900
C862        C  0.83851616  0.15836649  0.70756128    -0.08600
C863        C  0.85611602  0.14486495  0.71628428     0.06700
C864        C  0.85187592  0.12952552  0.73399464    -0.13000
Br865      Br  0.81983481  0.07615117  0.73212414    -0.05100
Br866      Br  0.81381747  0.12863624  0.83130340     0.00500
Br867      Br  0.79200737  0.17381632  0.70468384     0.01000
Br868      Br  0.87609936  0.11197965  0.74666176    -0.03400
Br869      Br  0.79652639  0.04947285  0.77555037     0.01100
Br870      Br  0.83720040  0.15391271  0.78763025    -0.02700
Br871      Br  0.78209678  0.13685597  0.74558107    -0.03600
Br872      Br  0.88599525  0.14687245  0.70358996     0.00400
C873        C  0.01903822  0.38495083  0.70561417     0.01800
C874        C  0.02325513  0.37403946  0.68467206     0.04600
C875        C  0.00565771  0.36274789  0.67316035    -0.11400
C876        C  0.98419955  0.36084724  0.68294383     0.23900
C877        C  0.97918002  0.37342283  0.70227264    -0.12000
C878        C  0.99616841  0.38617449  0.71294216     0.05400
C879        C  0.96803306  0.34339639  0.67473299     0.27800
C880        C  0.94956045  0.34926405  0.66106345    -0.12700
C881        C  0.93352419  0.33272504  0.65488540     0.05900
C882        C  0.93658131  0.30988241  0.66130951    -0.08600
C883        C  0.95580034  0.30395557  0.67410835     0.06700
C884        C  0.97102836  0.32073435  0.68132324    -0.13000
Br885      Br  0.94929504  0.37160956  0.71515619    -0.05100
Br886      Br  0.05253849  0.37229361  0.67138044     0.00500
Br887      Br  0.90667105  0.34200755  0.63907110     0.01000
Br888      Br  0.99593608  0.31277682  0.70074490    -0.03400
Br889      Br  0.98751508  0.40447770  0.73832230     0.01100
Br890      Br  0.01088255  0.34842071  0.64439848    -0.02700
Br891      Br  0.94633490  0.38005846  0.65096353    -0.03600
Br892      Br  0.96232327  0.27272961  0.68083315     0.00400
C893        C  0.71959631  0.29732867  0.47624352     0.01800
C894        C  0.74140735  0.29414419  0.46724989     0.04600
C895        C  0.75814580  0.28306803  0.48006394    -0.11400
C896        C  0.75306354  0.27469270  0.50169862     0.23900
C897        C  0.73097471  0.27645326  0.51006153    -0.12000
C898        C  0.71457991  0.28844927  0.49789162     0.05400
C899        C  0.77136169  0.26719442  0.51715321     0.27800
C900        C  0.77714399  0.24422662  0.51896289    -0.12700
C901        C  0.79335731  0.23722058  0.53489529     0.05900
C902        C  0.80346916  0.25311956  0.54958023    -0.08600
C903        C  0.79739621  0.27616594  0.54780697     0.06700
C904        C  0.78167024  0.28313867  0.53146988    -0.13000
Br905      Br  0.72376347  0.26384491  0.53919546    -0.05100
Br906      Br  0.74947915  0.30770274  0.43892382     0.00500
Br907      Br  0.80198346  0.20585176  0.53608189     0.01000
Br908      Br  0.77334427  0.31460133  0.52925572    -0.03400
Br909      Br  0.68598672  0.29467177  0.51236674     0.01100
Br910      Br  0.78863156  0.28101018  0.46897249    -0.02700
Br911      Br  0.76212958  0.22239006  0.50006649    -0.03600
Br912      Br  0.80879919  0.29825194  0.56890381     0.00400
C913        C  0.81341946  0.84951449  0.04804685     0.01800
C914        C  0.81081850  0.84715621  0.02458235     0.04600
C915        C  0.82878523  0.83909059  0.01143652    -0.11400
C916        C  0.84920005  0.83283467  0.02181368     0.23900
C917        C  0.85192848  0.83551180  0.04524767    -0.12000
C918        C  0.83420739  0.84424297  0.05828847     0.05400
C919        C  0.86705618  0.82155021  0.00853214     0.27800
C920        C  0.86464068  0.79854355  0.00315163    -0.12700
C921        C  0.88228450  0.78702898  0.99248935     0.05900
C922        C  0.90282926  0.79833721  0.98758126    -0.08600
C923        C  0.90510813  0.82146318  0.99286182     0.06700
C924        C  0.88703634  0.83315486  0.00283815    -0.13000
Br925      Br  0.87942569  0.82575925  0.05969740    -0.05100
Br926      Br  0.78258762  0.85493441  0.01046399     0.00500
Br927      Br  0.87837328  0.75522826  0.98569893     0.01000
Br928      Br  0.89004703  0.86477788  0.01012483    -0.03400
Br929      Br  0.83806197  0.84762668  0.09038484     0.01100
Br930      Br  0.82524397  0.83568229  0.97931544    -0.02700
Br931      Br  0.83769640  0.78231881  0.01197252    -0.03600
Br932      Br  0.93370366  0.83653408  0.98949449     0.00400
C933        C  0.75049183  0.94578493  0.18951221     0.01800
C934        C  0.77100912  0.94140625  0.20073536     0.04600
C935        C  0.77726537  0.95441269  0.21950043    -0.11400
C936        C  0.76288250  0.97154364  0.22750162     0.23900
C937        C  0.74238974  0.97594341  0.21638716    -0.12000
C938        C  0.73618465  0.96307335  0.19739982     0.05400
C939        C  0.76928933  0.98396490  0.24825122     0.27800
C940        C  0.76613341  0.97348161  0.26924085    -0.12700
C941        C  0.77788657  0.98136160  0.28824896     0.05900
C942        C  0.79130821  0.00122404  0.28688566    -0.08600
C943        C  0.79313337  0.01252652  0.26598184     0.06700
C944        C  0.78217571  0.00388411  0.24675026    -0.13000
Br945      Br  0.72288889  0.99945571  0.22740467    -0.05100
Br946      Br  0.78998026  0.91656279  0.19159272     0.00500
Br947      Br  0.77785974  0.96269030  0.31500388     0.01000
Br948      Br  0.78648081  0.01797663  0.21774768    -0.03400
Br949      Br  0.70823562  0.96932028  0.18203003     0.01100
Br950      Br  0.80552881  0.94853657  0.23460476    -0.02700
Br951      Br  0.74711240  0.94700437  0.27128996    -0.03600
Br952      Br  0.81392901  0.03721342  0.26230617     0.00400
C953        C  0.59640830  0.71112941  0.19461258     0.01800
C954        C  0.60664692  0.70519564  0.17399694     0.04600
C955        C  0.61753640  0.72179378  0.16093174    -0.11400
C956        C  0.61799128  0.74437366  0.16826028     0.23900
C957        C  0.60639981  0.75066050  0.18789001    -0.12000
C958        C  0.59666045  0.73402047  0.20164978     0.05400
C959        C  0.63408810  0.76054386  0.15805798     0.27800
C960        C  0.65517690  0.76397621  0.16853660    -0.12700
C961        C  0.67024482  0.78012226  0.15993250     0.05900
C962        C  0.66436012  0.79274162  0.14073800    -0.08600
C963        C  0.64370276  0.78870243  0.12971898     0.06700
C964        C  0.62842013  0.77275981  0.13853131    -0.13000
Br965      Br  0.60559738  0.78204300  0.19673380    -0.05100
Br966      Br  0.60948753  0.67401493  0.16541283     0.00500
Br967      Br  0.69901655  0.78492833  0.17440487     0.01000
Br968      Br  0.59947625  0.76813948  0.12446212    -0.03400
Br969      Br  0.58628308  0.74268892  0.23132598     0.01100
Br970      Br  0.63375720  0.71340579  0.13405233    -0.02700
Br971      Br  0.66321710  0.74681354  0.19502706    -0.03600
Br972      Br  0.63622771  0.80542263  0.10289909     0.00400
C973        C  0.08913494  0.89600259  0.69819763     0.01800
C974        C  0.09409321  0.87532267  0.68714821     0.04600
C975        C  0.10699642  0.85864998  0.69796482    -0.11400
C976        C  0.11469520  0.86202897  0.72009978     0.23900
C977        C  0.10833005  0.88165634  0.73185722    -0.12000
C978        C  0.09619720  0.89890839  0.72076564     0.05400
C979        C  0.13209933  0.84644274  0.72930858     0.27800
C980        C  0.12593709  0.82518457  0.73806464    -0.12700
C981        C  0.14258142  0.80872095  0.74227445     0.05900
C982        C  0.16553281  0.81354555  0.73797138    -0.08600
C983        C  0.17174122  0.83529364  0.73031032     0.06700
C984        C  0.15509022  0.85167093  0.72611076    -0.13000
Br985      Br  0.11774615  0.88539672  0.76270794    -0.05100
Br986      Br  0.08471654  0.87005045  0.65634549     0.00500
Br987      Br  0.13386943  0.77959278  0.75399114     0.01000
Br988      Br  0.16365708  0.88104308  0.71473754    -0.03400
Br989      Br  0.09270378  0.92753415  0.73556828     0.01100
Br990      Br  0.11595218  0.83183900  0.68171014    -0.02700
Br991      Br  0.09456379  0.81859899  0.74360671    -0.03600
Br992      Br  0.20284370  0.84227752  0.72353427     0.00400
C993        C  0.31893323  0.75960475  0.82332799     0.01800
C994        C  0.34208332  0.75401418  0.82155853     0.04600
C995        C  0.35716261  0.75964933  0.83910366    -0.11400
C996        C  0.34946517  0.77181065  0.85796029     0.23900
C997        C  0.32638711  0.77708967  0.85988877    -0.12000
C998        C  0.31109461  0.77034793  0.84309431     0.05400
C999        C  0.36536299  0.77997111  0.87562227     0.27800
C1000       C  0.36529714  0.76990773  0.89703797    -0.12700
C1001       C  0.37472277  0.78135701  0.91567660     0.05900
C1002       C  0.38609708  0.80232948  0.91270530    -0.08600
C1003       C  0.38843352  0.81074230  0.89031978     0.06700
C1004       C  0.37769210  0.79992200  0.87211124    -0.13000
Br1005     Br  0.31571581  0.79423309  0.88543504    -0.05100
Br1006     Br  0.35372873  0.73992247  0.79470774     0.00500
Br1007     Br  0.36868537  0.76886287  0.94478926     0.01000
Br1008     Br  0.37828081  0.81340612  0.84244097    -0.03400
Br1009     Br  0.27921298  0.77470871  0.84827799     0.01100
Br1010     Br  0.38846520  0.75102637  0.83735684    -0.02700
Br1011     Br  0.35055500  0.74097258  0.90076293    -0.03600
Br1012     Br  0.40488830  0.83816354  0.88393514     0.00400
C1013       C  0.25775985  0.66184094  0.67895542     0.01800
C1014       C  0.24812903  0.64006877  0.67797143     0.04600
C1015       C  0.25509645  0.62464167  0.66128071    -0.11400
C1016       C  0.27148821  0.63108742  0.64531172     0.23900
C1017       C  0.28078806  0.65305747  0.64608103    -0.12000
C1018       C  0.27403821  0.66831968  0.66291563     0.05400
C1019       C  0.27973234  0.61485479  0.62802869     0.27800
C1020       C  0.30108488  0.60494013  0.63071067    -0.12700
C1021       C  0.31161362  0.59428901  0.61238587     0.05900
C1022       C  0.29995958  0.59147510  0.59169078    -0.08600
C1023       C  0.27774711  0.59980385  0.58970911     0.06700
C1024       C  0.26782422  0.61176747  0.60771242    -0.13000
Br1025     Br  0.30303858  0.66217183  0.62410823    -0.05100
Br1026     Br  0.22570367  0.63134219  0.69980914     0.00500
Br1027     Br  0.34287133  0.58533503  0.61543550     0.01000
Br1028     Br  0.23863382  0.62559343  0.60402923    -0.03400
Br1029     Br  0.28717582  0.69815929  0.66407225     0.01100
Br1030     Br  0.24272374  0.59450944  0.66058056    -0.02700
Br1031     Br  0.31642637  0.60722823  0.65930835    -0.03600
Br1032     Br  0.26188760  0.59762481  0.56154375     0.00400
loop_ 
_geom_bond_atom_site_label_1 
_geom_bond_atom_site_label_2 
_geom_bond_distance 
_geom_bond_site_symmetry_2 
_ccdc_geom_bond_type 
N1            N2   1.322       .  A
N1            C5   1.349       .  A
N1           Cu9   2.092       .  S
N2            C3   1.345       .  A
N2           Cu8   2.073       .  S
C3            C4   1.383       .  A
C3            H6   1.082       .  S
C4            C5   1.388       .  A
C4          C982   1.486       .  S
C5            H7   1.082       .  S
Cu8          N11   2.073       .  S
Cu9          N19   2.093       .  S
Cu10         N12   2.079       .  S
Cu10         N18   2.080       .  S
N11          N12   1.321       .  A
N11          C15   1.342       .  A
N12          C13   1.348       .  A
C13          C14   1.389       .  A
C13          H16   1.082       .  S
C14          C15   1.386       .  A
C14         C993   1.490       .  S
C15          H17   1.082       .  S
N18          N19   1.325       .  A
N18          C22   1.345       .  A
N19          C20   1.349       .  A
C20          C21   1.385       .  A
C20          H23   1.082       .  S
C21          C22   1.381       .  A
C21        C1013   1.480       .  S
C22          H24   1.082       .  S
N25          N26   1.323       .  A
N25          C29   1.344       .  A
N25         Cu33   2.071       .  S
N26          C27   1.345       .  A
N26         Cu32   2.073       .  S
C27          C28   1.382       .  A
C27          H30   1.082       .  S
C28          C29   1.381       .  A
C28         C913   1.474       .  S
C29          H31   1.082       .  S
Cu32         N35   2.073       .  S
Cu33         N43   2.071       .  S
Cu34         N36   2.069       .  S
Cu34         N42   2.069       .  S
N35          N36   1.322       .  A
N35          C39   1.344       .  A
N36          C37   1.345       .  A
C37          C38   1.383       .  A
C37          H40   1.082       .  S
C38          C39   1.384       .  A
C38         C933   1.479       .  S
C39          H41   1.082       .  S
N42          N43   1.323       .  A
N42          C46   1.343       .  A
N43          C44   1.346       .  A
C44          C45   1.381       .  A
C44          H47   1.082       .  S
C45          C46   1.379       .  A
C45         C962   1.470       .  S
C46          H48   1.082       .  S
N49          N50   1.323       .  A
N49          C53   1.346       .  A
N49         Cu57   2.083       .  S
N50          C51   1.348       .  A
N50         Cu56   2.089       .  S
C51          C52   1.387       .  A
C51          H54   1.082       .  S
C52          C53   1.387       .  A
C52         C902   1.491       .  S
C53          H55   1.082       .  S
Cu56         N59   2.089       .  S
Cu57         N67   2.082       .  S
Cu58         N60   2.083       .  S
Cu58         N66   2.083       .  S
N59          N60   1.323       .  A
N59          C63   1.349       .  A
N60          C61   1.346       .  A
C61          C62   1.385       .  A
C61          H64   1.082       .  S
C62          C63   1.388       .  A
C62         C862   1.489       .  S
C63          H65   1.082       .  S
N66          N67   1.322       .  A
N66          C70   1.346       .  A
N67          C68   1.347       .  A
C68          C69   1.387       .  A
C68          H71   1.082       .  S
C69          C70   1.387       .  A
C69         C882   1.491       .  S
C70          H72   1.082       .  S
N73          C77   1.371       .  A
N73          C74   1.370       .  A
N73         C842   1.462       .  S
C74          C75   1.380       .  A
C74         C922   1.483       .  S
C75          C76   1.359       .  A
C75          H78   1.083   1_556  S
C76          C77   1.380       .  A
C76          H79   1.083       .  S
C77         C813   1.485       .  S
N80          C84   1.373       .  A
N80          C81   1.373       .  A
N80         C802   1.458       .  S
C81          C82   1.381       .  A
C81         C973   1.496       .  S
C82          C83   1.363       .  A
C82          H85   1.083       .  S
C83          C84   1.381       .  A
C83          H86   1.083       .  S
C84         C773   1.496       .  S
N87          C91   1.375       .  A
N87          C88   1.376       .  A
N87         C762   1.462       .  S
C88          C89   1.381       .  A
C88         C853   1.497       .  S
C89          C90   1.360       .  A
C89          H92   1.083       .  S
C90          C91   1.380       .  A
C90          H93   1.083       .  S
C91         C742   1.494       .  S
C94          C95   1.412       .  A
C94          C99   1.412       .  A
C94         C753   1.505       .  S
C95          C96   1.411       .  A
C95         H100   1.084       .  S
C96          C97   1.406       .  A
C96         C793   1.498       .  S
C97          C98   1.405       .  A
C97         H101   1.084       .  S
C98          C99   1.412       .  A
C98         C833   1.498       .  S
C99         H102   1.084       .  S
N103        N104   1.323       .  A
N103        C107   1.346       .  A
N103       Cu111   2.074       .  S
N104        C105   1.344       .  A
N104       Cu110   2.074       .  S
C105        C106   1.381       .  A
C105        H108   1.082       .  S
C106        C107   1.382       .  A
C106        C713   1.472       .  S
C107        H109   1.082       .  S
Cu110       N113   2.075       .  S
Cu111       N121   2.075       .  S
Cu112       N114   2.084       .  S
Cu112       N120   2.084       .  S
N113        N114   1.322       .  A
N113        C117   1.346       .  A
N114        C115   1.346       .  A
C115        C116   1.386       .  A
C115        H118   1.082       .  S
C116        C117   1.385       .  A
C116        C693   1.486       .  S
C117        H119   1.082       .  S
N120        N121   1.323       .  A
N120        C124   1.348       .  A
N121        C122   1.345       .  A
C122        C123   1.381       .  A
C122        H125   1.082       .  S
C123        C124   1.384       .  A
C123        C673   1.478       .  S
C124        H126   1.082       .  S
N127        N128   1.323   1_565  A
N127        C131   1.350       .  A
N127       Cu135   2.100       .  S
N128        C129   1.344       .  A
N128       Cu134   2.072   1_556  S
C129        C130   1.383       .  A
C129        H132   1.082       .  S
C130        C131   1.390   1_545  A
C130        C733   1.490       .  S
C131        H133   1.082       .  S
Cu134       N137   2.072       .  S
Cu135       N145   2.100       .  S
Cu136       N138   2.081   1_565  S
Cu136       N144   2.081       .  S
N137        N138   1.322       .  A
N137        C141   1.345       .  A
N138        C139   1.347       .  A
C139        C140   1.384       .  A
C139        H142   1.082       .  S
C140        C141   1.381       .  A
C140        C653   1.476       .  S
C141        H143   1.082       .  S
N144        N145   1.325   1_554  A
N144        C148   1.346       .  A
N145        C146   1.350       .  A
C146        C147   1.387       .  A
C146        H149   1.082       .  S
C147        C148   1.382   1_556  A
C147        C642   1.483       .  S
C148        H150   1.082       .  S
N151        C155   1.371       .  A
N151        C152   1.372       .  A
N151        C622   1.459       .  S
C152        C153   1.381       .  A
C152        C582   1.490       .  S
C153        C154   1.360       .  A
C153        H156   1.083       .  S
C154        C155   1.381       .  A
C154        H157   1.083       .  S
C155        C602   1.489       .  S
N158        C162   1.368       .  A
N158        C159   1.369       .  A
N158        C553   1.461       .  S
C159        C160   1.381       .  A
C159        C722   1.483       .  S
C160        C161   1.363       .  A
C160        H163   1.083       .  S
C161        C162   1.380       .  A
C161        H164   1.082       .  S
C162        C953   1.483       .  S
N165        C169   1.371       .  A
N165        C166   1.366       .  A
N165        C533   1.446       .  S
C166        C167   1.378       .  A
C166        C633   1.497       .  S
C167        C168   1.373       .  A
C167        H170   1.082       .  S
C168        C169   1.387       .  A
C168        H171   1.082       .  S
C169       C1002   1.511       .  S
C172        C173   1.407       .  A
C172        C177   1.408       .  A
C172        C562   1.496       .  S
C173        C174   1.405       .  A
C173        H178   1.084       .  S
C174        C175   1.405       .  A
C174        C613   1.495       .  S
C175        C176   1.407       .  A
C175        H179   1.083       .  S
C176        C177   1.409       .  A
C176        C542   1.501       .  S
C177        H180   1.083       .  S
N181        N182   1.322   1_655  A
N181        C185   1.346   1_655  A
N181       Cu189   2.084       .  S
N182        C183   1.348       .  A
N182       Cu188   2.084       .  S
C183        C184   1.388       .  A
C183        H186   1.082       .  S
C184        C185   1.388       .  A
C184        C513   1.492       .  S
C185        H187   1.082       .  S
Cu188       N191   2.084   1_455  S
Cu189       N199   2.085       .  S
Cu190       N192   2.090       .  S
Cu190       N198   2.089       .  S
N191        N192   1.324       .  A
N191        C195   1.346   1_655  A
N192        C193   1.349       .  A
C193        C194   1.385       .  A
C193        H196   1.082       .  S
C194        C195   1.383   1_655  A
C194        C782   1.482       .  S
C195        H197   1.082       .  S
N198        N199   1.322       .  A
N198        C202   1.346       .  A
N199        C200   1.348       .  A
C200        C201   1.388       .  A
C200        H203   1.082       .  S
C201        C202   1.388       .  A
C201        C502   1.494       .  S
C202        H204   1.082       .  S
N205        C209   1.373       .  A
N205        C206   1.375       .  A
N205        C482   1.461       .  S
C206        C207   1.381       .  A
C206        C702   1.495       .  S
C207        C208   1.361       .  A
C207        H210   1.083       .  S
C208        C209   1.380       .  A
C208        H211   1.083       .  S
C209        C893   1.491       .  S
N212        C216   1.373       .  A
N212        C213   1.371       .  A
N212        C453   1.459       .  S
C213        C214   1.380       .  A
C213        C662   1.489       .  S
C214        C215   1.362       .  A
C214        H217   1.083       .  S
C215        C216   1.382       .  A
C215        H218   1.083       .  S
C216        C433   1.494       .  S
N219        C223   1.371       .  A
N219        C220   1.371       .  A
N219        C422   1.460       .  S
C220        C221   1.381       .  A
C220        C493   1.489       .  S
C221        C222   1.365   1_545  A
C221        H224   1.082   1_545  S
C222        C223   1.381   1_565  A
C222        H225   1.082       .  S
C223        C942   1.491       .  S
C226        C227   1.409       .  A
C226        C231   1.408       .  A
C226        C473   1.503       .  S
C227        C228   1.410       .  A
C227        H232   1.082       .  S
C228        C229   1.409       .  A
C228        C413   1.502       .  S
C229        C230   1.405       .  A
C229        H233   1.083       .  S
C230        C231   1.405       .  A
C230        C462   1.488       .  S
C231        H234   1.084       .  S
N235        N236   1.323       .  A
N235        C239   1.348       .  A
N235       Cu243   2.086       .  S
N236        C237   1.346       .  A
N236       Cu242   2.084       .  S
C237        C238   1.386       .  A
C237        H240   1.082       .  S
C238        C239   1.387       .  A
C238        C402   1.488       .  S
C239        H241   1.082       .  S
Cu242       N245   2.084       .  S
Cu243       N253   2.086       .  S
Cu244       N246   2.082       .  S
Cu244       N252   2.082       .  S
N245        N246   1.323       .  A
N245        C249   1.348       .  A
N246        C247   1.346       .  A
C247        C248   1.384       .  A
C247        H250   1.082       .  S
C248        C249   1.385       .  A
C248        C442   1.481       .  S
C249        H251   1.082       .  S
N252        N253   1.324       .  A
N252        C256   1.347       .  A
N253        C254   1.347       .  A
C254        C255   1.383       .  A
C254        H257   1.082       .  S
C255        C256   1.382       .  A
C255        C593   1.479       .  S
C256        H258   1.082       .  S
N259        N260   1.322       .  A
N259        C263   1.346       .  A
N259       Cu267   2.071       .  S
N260        C261   1.341       .  A
N260       Cu266   2.060       .  S
C261        C262   1.378       .  A
C261        H264   1.082       .  S
C262        C263   1.382       .  A
C262        C822   1.468       .  S
C263        H265   1.082       .  S
Cu266       N269   2.060       .  S
Cu267       N277   2.072       .  S
Cu268       N270   2.073       .  S
Cu268       N276   2.073       .  S
N269        N270   1.322       .  A
N269        C273   1.344       .  A
N270        C271   1.344       .  A
C271        C272   1.381       .  A
C271        H274   1.082       .  S
C272        C273   1.379       .  A
C272        C573   1.470       .  S
C273        H275   1.082       .  S
N276        N277   1.323       .  A
N276        C280   1.345       .  A
N277        C278   1.344       .  A
C278        C279   1.381       .  A
C278        H281   1.082       .  S
C279        C280   1.382       .  A
C279        C373   1.474       .  S
C280        H282   1.082       .  S
N283        C287   1.371       .  A
N283        C284   1.372       .  A
N283        C362   1.455       .  S
C284        C285   1.381       .  A
C284        C522   1.495       .  S
C285        C286   1.365       .  A
C285        H288   1.082       .  S
C286        C287   1.381       .  A
C286        H289   1.082       .  S
C287        C393   1.495       .  S
N290        C294   1.371       .  A
N290        C291   1.373       .  A
N290        C342   1.457       .  S
C291        C292   1.382       .  A
C291        C682   1.497       .  S
C292        C293   1.364       .  A
C292        H295   1.082       .  S
C293        C294   1.380       .  A
C293        H296   1.082       .  S
C294       C1022   1.492       .  S
N297        C301   1.373       .  A
N297        C298   1.364       .  A
N297        C313   1.445       .  S
C298        C299   1.376       .  A
C298        C382   1.492       .  S
C299        C300   1.371       .  A
C299        H302   1.082       .  S
C300        C301   1.389       .  A
C300        H303   1.083       .  S
C301        C873   1.516       .  S
C304        C305   1.404       .  A
C304        C309   1.410       .  A
C304        C353   1.494       .  S
C305        C306   1.403       .  A
C305        H310   1.084       .  S
C306        C307   1.405       .  A
C306        C333   1.488       .  S
C307        C308   1.408       .  A
C307        H311   1.084       .  S
C308        C309   1.413       .  A
C308        C322   1.501       .  S
C309        H312   1.083       .  S
C313        C314   1.419       .  A
C313        C318   1.407       .  A
C314        C315   1.407       .  A
C314       Br326   1.938       .  S
C315        C316   1.409       .  A
C315       Br330   1.932       .  S
C316        C317   1.413       .  A
C316        C319   1.493       .  S
C317        C318   1.411       .  A
C317       Br325   1.928       .  S
C318       Br329   1.920       .  S
C319        C320   1.410       .  A
C319        C324   1.408       .  A
C320        C321   1.413       .  A
C320       Br331   1.930       .  S
C321        C322   1.419       .  A
C321       Br327   1.931       .  S
C322        C323   1.416       .  A
C323        C324   1.407       .  A
C323       Br332   1.922       .  S
C324       Br328   1.934       .  S
C333        C334   1.412       .  A
C333        C338   1.412       .  A
C334        C335   1.411       .  A
C334       Br346   1.929       .  S
C335        C336   1.412       .  A
C335       Br350   1.929       .  S
C336        C337   1.408       .  A
C336        C339   1.489       .  S
C337        C338   1.405       .  A
C337       Br345   1.933       .  S
C338       Br349   1.923       .  S
C339        C340   1.406       .  A
C339        C344   1.408       .  A
C340        C341   1.409       .  A
C340       Br351   1.932       .  S
C341        C342   1.418       .  A
C341       Br347   1.919       .  S
C342        C343   1.419       .  A
C343        C344   1.409       .  A
C343       Br352   1.921       .  S
C344       Br348   1.935       .  S
C353        C354   1.413       .  A
C353        C358   1.414       .  A
C354        C355   1.408       .  A
C354       Br366   1.922       .  S
C355        C356   1.410       .  A
C355       Br370   1.933       .  S
C356        C357   1.408       .  A
C356        C359   1.488       .  S
C357        C358   1.407       .  A
C357       Br365   1.933       .  S
C358       Br369   1.922       .  S
C359        C360   1.407       .  A
C359        C364   1.407       .  A
C360        C361   1.408       .  A
C360       Br371   1.934       .  S
C361        C362   1.418       .  A
C361       Br367   1.919       .  S
C362        C363   1.418       .  A
C363        C364   1.407       .  A
C363       Br372   1.920       .  S
C364       Br368   1.933       .  S
C373        C374   1.410       .  A
C373        C378   1.410       .  A
C374        C375   1.406       .  A
C374       Br386   1.931       .  S
C375        C376   1.410       .  A
C375       Br390   1.930       .  S
C376        C377   1.408       .  A
C376        C379   1.482       .  S
C377        C378   1.406       .  A
C377       Br385   1.929       .  S
C378       Br389   1.929       .  S
C379        C380   1.406       .  A
C379        C384   1.404       .  A
C380        C381   1.410       .  A
C380       Br391   1.930       .  S
C381        C382   1.414       .  A
C381       Br387   1.919       .  S
C382        C383   1.415       .  A
C383        C384   1.406       .  A
C383       Br392   1.922       .  S
C384       Br388   1.933       .  S
C393        C394   1.420       .  A
C393        C398   1.415       .  A
C394        C395   1.406       .  A
C394       Br406   1.937       .  S
C395        C396   1.405       .  A
C395       Br410   1.932       .  S
C396        C397   1.409       .  A
C396        C399   1.490       .  S
C397        C398   1.413       .  A
C397       Br405   1.929       .  S
C398       Br409   1.923       .  S
C399        C400   1.410       .  A
C399        C404   1.408       .  A
C400        C401   1.407       .  A
C400       Br411   1.933       .  S
C401        C402   1.413       .  A
C401       Br407   1.932       .  S
C402        C403   1.415       .  A
C403        C404   1.413       .  A
C403       Br412   1.929       .  S
C404       Br408   1.928       .  S
C413        C414   1.418       .  A
C413        C418   1.420       .  A
C414        C415   1.411       .  A
C414       Br426   1.932       .  S
C415        C416   1.410       .  A
C415       Br430   1.932       .  S
C416        C417   1.409       .  A
C416        C419   1.496       .  S
C417        C418   1.411       .  A
C417       Br425   1.932       .  S
C418       Br429   1.930       .  S
C419        C420   1.409       .  A
C419        C424   1.406       .  A
C420        C421   1.413       .  A
C420       Br431   1.933       .  S
C421        C422   1.420       .  A
C421       Br427   1.920       .  S
C422        C423   1.418       .  A
C423        C424   1.409       .  A
C423       Br432   1.918       .  S
C424       Br428   1.933       .  S
C433        C434   1.415       .  A
C433        C438   1.421       .  A
C434        C435   1.414       .  A
C434       Br446   1.922       .  S
C435        C436   1.409       .  A
C435       Br450   1.929       .  S
C436        C437   1.406       .  A
C436        C439   1.490       .  S
C437        C438   1.406       .  A
C437       Br445   1.934       .  S
C438       Br449   1.938       .  S
C439        C440   1.412       .  A
C439        C444   1.410       .  A
C440        C441   1.408       .  A
C440       Br451   1.931       .  S
C441        C442   1.410       .  A
C441       Br447   1.930       .  S
C442        C443   1.410       .  A
C443        C444   1.411       .  A
C443       Br452   1.927       .  S
C444       Br448   1.927       .  S
C453        C454   1.418       .  A
C453        C458   1.419       .  A
C454        C455   1.411       .  A
C454       Br466   1.920       .  S
C455        C456   1.409       .  A
C455       Br470   1.932       .  S
C456        C457   1.407       .  A
C456        C459   1.496       .  S
C457        C458   1.409       .  A
C457       Br465   1.932       .  S
C458       Br469   1.920       .  S
C459        C460   1.413       .  A
C459        C464   1.413       .  A
C460        C461   1.411       .  A
C460       Br471   1.930       .  S
C461        C462   1.410       .  A
C461       Br467   1.927       .  S
C462        C463   1.410       .  A
C463        C464   1.409       .  A
C463       Br472   1.927       .  S
C464       Br468   1.932       .  S
C473        C474   1.419       .  A
C473        C478   1.419       .  A
C474        C475   1.413       .  A
C474       Br486   1.932       .  S
C475        C476   1.411       .  A
C475       Br490   1.931       .  S
C476        C477   1.408       .  A
C476        C479   1.497       .  S
C477        C478   1.409       .  A
C477       Br485   1.934       .  S
C478       Br489   1.929       .  S
C479        C480   1.409       .  A
C479        C484   1.407       .  A
C480        C481   1.412       .  A
C480       Br491   1.934       .  S
C481        C482   1.420       .  A
C481       Br487   1.919       .  S
C482        C483   1.418       .  A
C483        C484   1.411       .  A
C483       Br492   1.917       .  S
C484       Br488   1.932       .  S
C493        C494   1.411       .  A
C493        C498   1.419       .  A
C494        C495   1.412       .  A
C494       Br506   1.924       .  S
C495        C496   1.410       .  A
C495       Br510   1.928       .  S
C496        C497   1.407       .  A
C496        C499   1.490       .  S
C497        C498   1.407       .  A
C497       Br505   1.932       .  S
C498       Br509   1.937       .  S
C499        C500   1.408       .  A
C499        C504   1.408       .  A
C500        C501   1.413       .  A
C500       Br511   1.930       .  S
C501        C502   1.418       .  A
C501       Br507   1.929       .  S
C502        C503   1.416       .  A
C503        C504   1.408       .  A
C503       Br512   1.932       .  S
C504       Br508   1.933       .  S
C513        C514   1.416       .  A
C513        C518   1.417       .  A
C514        C515   1.408       .  A
C514       Br526   1.932       .  S
C515        C516   1.409       .  A
C515       Br530   1.933       .  S
C516        C517   1.408       .  A
C516        C519   1.490       .  S
C517        C518   1.413       .  A
C517       Br525   1.928       .  S
C518       Br529   1.930       .  S
C519        C520   1.405       .  A
C519        C524   1.409       .  A
C520        C521   1.406       .  A
C520       Br531   1.933       .  S
C521        C522   1.421       .  A
C521       Br527   1.937       .  S
C522        C523   1.415       .  A
C523        C524   1.414       .  A
C523       Br532   1.923       .  S
C524       Br528   1.929       .  S
C533        C534   1.419       .  A
C533        C538   1.407       .  A
C534        C535   1.407       .  A
C534       Br546   1.937       .  S
C535        C536   1.409       .  A
C535       Br550   1.933   1_556  S
C536        C537   1.412       .  A
C536        C539   1.493   1_556  S
C537        C538   1.411       .  A
C537       Br545   1.929       .  S
C538       Br549   1.918       .  S
C539        C540   1.409       .  A
C539        C544   1.409   1_554  A
C540        C541   1.410       .  A
C540       Br551   1.933       .  S
C541        C542   1.419       .  A
C541       Br547   1.933       .  S
C542        C543   1.419       .  A
C543        C544   1.411   1_554  A
C543       Br552   1.933       .  S
C544       Br548   1.932       .  S
C553        C554   1.418       .  A
C553        C558   1.421       .  A
C554        C555   1.408       .  A
C554       Br566   1.918       .  S
C555        C556   1.406       .  A
C555       Br570   1.932       .  S
C556        C557   1.407       .  A
C556        C559   1.494       .  S
C557        C558   1.413       .  A
C557       Br565   1.932       .  S
C558       Br569   1.918       .  S
C559        C560   1.410       .  A
C559        C564   1.411       .  A
C560        C561   1.409       .  A
C560       Br571   1.933       .  S
C561        C562   1.416       .  A
C561       Br567   1.933       .  S
C562        C563   1.416       .  A
C563        C564   1.413       .  A
C563       Br572   1.930       .  S
C564       Br568   1.930       .  S
C573        C574   1.408       .  A
C573        C578   1.407       .  A
C574        C575   1.405       .  A
C574       Br586   1.931       .  S
C575        C576   1.411       .  A
C575       Br590   1.931   1_556  S
C576        C577   1.408       .  A
C576        C579   1.481   1_556  S
C577        C578   1.406       .  A
C577       Br585   1.928       .  S
C578       Br589   1.928       .  S
C579        C580   1.406       .  A
C579        C584   1.404       .  A
C580        C581   1.411       .  A
C580       Br591   1.930       .  S
C581        C582   1.415       .  A
C581       Br587   1.922       .  S
C582        C583   1.421       .  A
C583        C584   1.402       .  A
C583       Br592   1.939       .  S
C584       Br588   1.935   1_554  S
C593        C594   1.410       .  A
C593        C598   1.409       .  A
C594        C595   1.410       .  A
C594       Br606   1.927       .  S
C595        C596   1.409       .  A
C595       Br610   1.928       .  S
C596        C597   1.411       .  A
C596        C599   1.486       .  S
C597        C598   1.408       .  A
C597       Br605   1.931       .  S
C598       Br609   1.929       .  S
C599        C600   1.405       .  A
C599        C604   1.409       .  A
C600        C601   1.403       .  A
C600       Br611   1.932       .  S
C601        C602   1.420       .  A
C601       Br607   1.939       .  S
C602        C603   1.413       .  A
C603        C604   1.412       .  A
C603       Br612   1.924       .  S
C604       Br608   1.928       .  S
C613        C614   1.416       .  A
C613        C618   1.416       .  A
C614        C615   1.409       .  A
C614       Br626   1.932       .  S
C615        C616   1.410       .  A
C615       Br630   1.931       .  S
C616        C617   1.410       .  A
C616        C619   1.493       .  S
C617        C618   1.411       .  A
C617       Br625   1.931       .  S
C618       Br629   1.931       .  S
C619        C620   1.407       .  A
C619        C624   1.407       .  A
C620        C621   1.410       .  A
C620       Br631   1.932       .  S
C621        C622   1.419       .  A
C621       Br627   1.921       .  S
C622        C623   1.419       .  A
C623        C624   1.410       .  A
C623       Br632   1.920       .  S
C624       Br628   1.933       .  S
C633        C634   1.415       .  A
C633        C638   1.416       .  A
C634        C635   1.413       .  A
C634       Br646   1.921   1_556  S
C635        C636   1.408       .  A
C635       Br650   1.929   1_556  S
C636        C637   1.405       .  A
C636        C639   1.491       .  S
C637        C638   1.408       .  A
C637       Br645   1.932       .  S
C638       Br649   1.920       .  S
C639        C640   1.411       .  A
C639        C644   1.409       .  A
C640        C641   1.409       .  A
C640       Br651   1.930       .  S
C641        C642   1.410       .  A
C641       Br647   1.930       .  S
C642        C643   1.411       .  A
C643        C644   1.412       .  A
C643       Br652   1.927   1_556  S
C644       Br648   1.928       .  S
C653        C654   1.409       .  A
C653        C658   1.408       .  A
C654        C655   1.409       .  A
C654       Br666   1.928       .  S
C655        C656   1.409       .  A
C655       Br670   1.928       .  S
C656        C657   1.411       .  A
C656        C659   1.485       .  S
C657        C658   1.407       .  A
C657       Br665   1.931       .  S
C658       Br669   1.929       .  S
C659        C660   1.405       .  A
C659        C664   1.410       .  A
C660        C661   1.403       .  A
C660       Br671   1.933       .  S
C661        C662   1.419       .  A
C661       Br667   1.938       .  S
C662        C663   1.413       .  A
C663        C664   1.413       .  A
C663       Br672   1.925       .  S
C664       Br668   1.928       .  S
C673        C674   1.408       .  A
C673        C678   1.410       .  A
C674        C675   1.407       .  A
C674       Br686   1.930       .  S
C675        C676   1.412       .  A
C675       Br690   1.932       .  S
C676        C677   1.409       .  A
C676        C679   1.489       .  S
C677        C678   1.410       .  A
C677       Br685   1.927       .  S
C678       Br689   1.928       .  S
C679        C680   1.407       .  A
C679        C684   1.405       .  A
C680        C681   1.412       .  A
C680       Br691   1.930       .  S
C681        C682   1.416       .  A
C681       Br687   1.919       .  S
C682        C683   1.422       .  A
C683        C684   1.407       .  A
C683       Br692   1.936       .  S
C684       Br688   1.934       .  S
C693        C694   1.415       .  A
C693        C698   1.413       .  A
C694        C695   1.411       .  A
C694       Br706   1.929       .  S
C695        C696   1.408       .  A
C695       Br710   1.928       .  S
C696        C697   1.411       .  A
C696        C699   1.490       .  S
C697        C698   1.407       .  A
C697       Br705   1.932       .  S
C698       Br709   1.932       .  S
C699        C700   1.408       .  A
C699        C704   1.405       .  A
C700        C701   1.414       .  A
C700       Br711   1.930       .  S
C701        C702   1.415       .  A
C701       Br707   1.921       .  S
C702        C703   1.422       .  A
C703        C704   1.407       .  A
C703       Br712   1.937       .  S
C704       Br708   1.933       .  S
C713        C714   1.409       .  A
C713        C718   1.408       .  A
C714        C715   1.408       .  A
C714       Br726   1.927       .  S
C715        C716   1.408       .  A
C715       Br730   1.928       .  S
C716        C717   1.410       .  A
C716        C719   1.481       .  S
C717        C718   1.404       .  A
C717       Br725   1.931       .  S
C718       Br729   1.930       .  S
C719        C720   1.405       .  A
C719        C724   1.407       .  A
C720        C721   1.404       .  A
C720       Br731   1.932       .  S
C721        C722   1.419       .  A
C721       Br727   1.938       .  S
C722        C723   1.412       .  A
C723        C724   1.409       .  A
C723       Br732   1.923       .  S
C724       Br728   1.930       .  S
C733        C734   1.414   1_545  A
C733        C738   1.415       .  A
C734        C735   1.413   1_565  A
C734       Br746   1.929       .  S
C735        C736   1.409       .  A
C735       Br750   1.928   1_545  S
C736        C737   1.410       .  A
C736        C739   1.492       .  S
C737        C738   1.408       .  A
C737       Br745   1.932       .  S
C738       Br749   1.932       .  S
C739        C740   1.410       .  A
C739        C744   1.405       .  A
C740        C741   1.415       .  A
C740       Br751   1.928       .  S
C741        C742   1.414       .  A
C741       Br747   1.924       .  S
C742        C743   1.421       .  A
C743        C744   1.406       .  A
C743       Br752   1.938       .  S
C744       Br748   1.933       .  S
C753        C754   1.415       .  A
C753        C758   1.416       .  A
C754        C755   1.412       .  A
C754       Br766   1.924       .  S
C755        C756   1.412       .  A
C755       Br770   1.932       .  S
C756        C757   1.411       .  A
C756        C759   1.501   1_565  S
C757        C758   1.411       .  A
C757       Br765   1.933   1_565  S
C758       Br769   1.921       .  S
C759        C760   1.410       .  A
C759        C764   1.409       .  A
C760        C761   1.412       .  A
C760       Br771   1.932       .  S
C761        C762   1.418       .  A
C761       Br767   1.920       .  S
C762        C763   1.419       .  A
C763        C764   1.411       .  A
C763       Br772   1.918       .  S
C764       Br768   1.933   1_545  S
C773        C774   1.415       .  A
C773        C778   1.422       .  A
C774        C775   1.414       .  A
C774       Br786   1.922       .  S
C775        C776   1.408       .  A
C775       Br790   1.929   1_455  S
C776        C777   1.405   1_565  A
C776        C779   1.491   1_565  S
C777        C778   1.407   1_545  A
C777       Br785   1.932       .  S
C778       Br789   1.938       .  S
C779        C780   1.412       .  A
C779        C784   1.410   1_455  A
C780        C781   1.408       .  A
C780       Br791   1.931   1_545  S
C781        C782   1.409   1_455  A
C781       Br787   1.930       .  S
C782        C783   1.411       .  A
C783        C784   1.412       .  A
C783       Br792   1.927       .  S
C784       Br788   1.927       .  S
C793        C794   1.416       .  A
C793        C798   1.416       .  A
C794        C795   1.411       .  A
C794       Br806   1.931       .  S
C795        C796   1.410       .  A
C795       Br810   1.931   1_655  S
C796        C797   1.409       .  A
C796        C799   1.493   1_655  S
C797        C798   1.410       .  A
C797       Br805   1.932       .  S
C798       Br809   1.924       .  S
C799        C800   1.406       .  A
C799        C804   1.408       .  A
C800        C801   1.409       .  A
C800       Br811   1.932       .  S
C801        C802   1.418       .  A
C801       Br807   1.920       .  S
C802        C803   1.419       .  A
C803        C804   1.411       .  A
C803       Br812   1.922       .  S
C804       Br808   1.931       .  S
C813        C814   1.421       .  A
C813        C818   1.413       .  A
C814        C815   1.403   1_655  A
C814       Br826   1.938       .  S
C815        C816   1.404       .  A
C815       Br830   1.933       .  S
C816        C817   1.406   1_455  A
C816        C819   1.479       .  S
C817        C818   1.408       .  A
C817       Br825   1.931       .  S
C818       Br829   1.922       .  S
C819        C820   1.407       .  A
C819        C824   1.411       .  A
C820        C821   1.405       .  A
C820       Br831   1.928       .  S
C821        C822   1.407       .  A
C821       Br827   1.928       .  S
C822        C823   1.408       .  A
C823        C824   1.404       .  A
C823       Br832   1.931       .  S
C824       Br828   1.931   1_455  S
C833        C834   1.415       .  A
C833        C838   1.413       .  A
C834        C835   1.414       .  A
C834       Br846   1.929       .  S
C835        C836   1.412       .  A
C835       Br850   1.930       .  S
C836        C837   1.410       .  A
C836        C839   1.498       .  S
C837        C838   1.409       .  A
C837       Br845   1.932       .  S
C838       Br849   1.923       .  S
C839        C840   1.408       .  A
C839        C844   1.408       .  A
C840        C841   1.412       .  A
C840       Br851   1.932       .  S
C841        C842   1.420       .  A
C841       Br847   1.921       .  S
C842        C843   1.419       .  A
C843        C844   1.411       .  A
C843       Br852   1.919       .  S
C844       Br848   1.933       .  S
C853        C854   1.422       .  A
C853        C858   1.415       .  A
C854        C855   1.407       .  A
C854       Br866   1.937       .  S
C855        C856   1.405       .  A
C855       Br870   1.933       .  S
C856        C857   1.409       .  A
C856        C859   1.492       .  S
C857        C858   1.415       .  A
C857       Br865   1.928       .  S
C858       Br869   1.923       .  S
C859        C860   1.411       .  A
C859        C864   1.408       .  A
C860        C861   1.410       .  A
C860       Br871   1.932       .  S
C861        C862   1.413       .  A
C861       Br867   1.931       .  S
C862        C863   1.415       .  A
C863        C864   1.412       .  A
C863       Br872   1.929       .  S
C864       Br868   1.928       .  S
C873        C874   1.425       .  A
C873        C878   1.427   1_455  A
C874        C875   1.414       .  A
C874       Br886   1.911       .  S
C875        C876   1.403   1_455  A
C875       Br890   1.934       .  S
C876        C877   1.402       .  A
C876        C879   1.490       .  S
C877        C878   1.408       .  A
C877       Br885   1.933       .  S
C878       Br889   1.928       .  S
C879        C880   1.408       .  A
C879        C884   1.409       .  A
C880        C881   1.412       .  A
C880       Br891   1.929       .  S
C881        C882   1.417       .  A
C881       Br887   1.930       .  S
C882        C883   1.415       .  A
C883        C884   1.408       .  A
C883       Br892   1.932       .  S
C884       Br888   1.933       .  S
C893        C894   1.413       .  A
C893        C898   1.420       .  A
C894        C895   1.413       .  A
C894       Br906   1.924       .  S
C895        C896   1.410       .  A
C895       Br910   1.929       .  S
C896        C897   1.405       .  A
C896        C899   1.490       .  S
C897        C898   1.405       .  A
C897       Br905   1.932       .  S
C898       Br909   1.938       .  S
C899        C900   1.408       .  A
C899        C904   1.409       .  A
C900        C901   1.412       .  A
C900       Br911   1.928       .  S
C901        C902   1.416       .  A
C901       Br907   1.929       .  S
C902        C903   1.416       .  A
C903        C904   1.408       .  A
C903       Br912   1.932       .  S
C904       Br908   1.933       .  S
C913        C914   1.409       .  A
C913        C918   1.410       .  A
C914        C915   1.406       .  A
C914       Br926   1.929       .  S
C915        C916   1.409       .  A
C915       Br930   1.930   1_554  S
C916        C917   1.410       .  A
C916        C919   1.482       .  S
C917        C918   1.406       .  A
C917       Br925   1.932       .  S
C918       Br929   1.931       .  S
C919        C920   1.406       .  A
C919        C924   1.409       .  A
C920        C921   1.402   1_554  A
C920       Br931   1.934       .  S
C921        C922   1.419       .  A
C921       Br927   1.939       .  S
C922        C923   1.411       .  A
C923        C924   1.409   1_556  A
C923       Br932   1.924       .  S
C924       Br928   1.930       .  S
C933        C934   1.412       .  A
C933        C938   1.412       .  A
C934        C935   1.404       .  A
C934       Br946   1.933       .  S
C935        C936   1.410       .  A
C935       Br950   1.933       .  S
C936        C937   1.408       .  A
C936        C939   1.485       .  S
C937        C938   1.410       .  A
C937       Br945   1.927       .  S
C938       Br949   1.929       .  S
C939        C940   1.405       .  A
C939        C944   1.406   1_565  A
C940        C941   1.406       .  A
C940       Br951   1.932       .  S
C941        C942   1.420   1_565  A
C941       Br947   1.936       .  S
C942        C943   1.414       .  A
C943        C944   1.410       .  A
C943       Br952   1.922       .  S
C944       Br948   1.931       .  S
C953        C954   1.412       .  A
C953        C958   1.419       .  A
C954        C955   1.407       .  A
C954       Br966   1.924       .  S
C955        C956   1.407       .  A
C955       Br970   1.930       .  S
C956        C957   1.405       .  A
C956        C959   1.480       .  S
C957        C958   1.403       .  A
C957       Br965   1.932       .  S
C958       Br969   1.938       .  S
C959        C960   1.411       .  A
C959        C964   1.408       .  A
C960        C961   1.403       .  A
C960       Br971   1.933       .  S
C961        C962   1.407       .  A
C961       Br967   1.931       .  S
C962        C963   1.409       .  A
C963        C964   1.408       .  A
C963       Br972   1.928       .  S
C964       Br968   1.928       .  S
C973        C974   1.421       .  A
C973        C978   1.415       .  A
C974        C975   1.406       .  A
C974       Br986   1.938       .  S
C975        C976   1.406       .  A
C975       Br990   1.934       .  S
C976        C977   1.409       .  A
C976        C979   1.490       .  S
C977        C978   1.414       .  A
C977       Br985   1.928       .  S
C978       Br989   1.922       .  S
C979        C980   1.409       .  A
C979        C984   1.410       .  A
C980        C981   1.411       .  A
C980       Br991   1.928       .  S
C981        C982   1.413       .  A
C981       Br987   1.929       .  S
C982        C983   1.413       .  A
C983        C984   1.408       .  A
C983       Br992   1.931       .  S
C984       Br988   1.932       .  S
C993        C994   1.417       .  A
C993        C998   1.415       .  A
C994        C995   1.413       .  A
C994      Br1006   1.930       .  S
C995        C996   1.409       .  A
C995      Br1010   1.929       .  S
C996        C997   1.409       .  A
C996        C999   1.490       .  S
C997        C998   1.405       .  A
C997      Br1005   1.934       .  S
C998      Br1009   1.934       .  S
C999       C1000   1.405       .  A
C999       C1004   1.403       .  A
C1000      C1001   1.413       .  A
C1000     Br1011   1.934       .  S
C1001      C1002   1.422       .  A
C1001     Br1007   1.914       .  S
C1002      C1003   1.426       .  A
C1003      C1004   1.409       .  A
C1003     Br1012   1.929       .  S
C1004     Br1008   1.935       .  S
C1013      C1014   1.410       .  A
C1013      C1018   1.409       .  A
C1014      C1015   1.411       .  A
C1014     Br1026   1.927       .  S
C1015      C1016   1.410       .  A
C1015     Br1030   1.928       .  S
C1016      C1017   1.412       .  A
C1016      C1019   1.490       .  S
C1017      C1018   1.407       .  A
C1017     Br1025   1.932       .  S
C1018     Br1029   1.930       .  S
C1019      C1020   1.406       .  A
C1019      C1024   1.410       .  A
C1020      C1021   1.406       .  A
C1020     Br1031   1.932       .  S
C1021      C1022   1.420       .  A
C1021     Br1027   1.938       .  S
C1022      C1023   1.413       .  A
C1023      C1024   1.413       .  A
C1023     Br1032   1.923       .  S
C1024     Br1028   1.929       .  S
