geometry optimzed in LAMMPS
_audit_creation_date              2020-11-30 
_audit_creation_method            'lammps2cif' 
_symmetry_space_group_name_H-M    'P1' 
_symmetry_Int_Tables_number       1 
_symmetry_cell_setting            triclinic 
loop_ 
_symmetry_equiv_pos_as_xyz 
  x,y,z 
_cell_length_a                    145.49653308 
_cell_length_b                    146.71708441241327 
_cell_length_c                    146.4267911978281 
_cell_angle_alpha                 89.94058961648457 
_cell_angle_beta                  89.95324695630916 
_cell_angle_gamma                 89.95446558531948 
loop_ 
_atom_site_label 
_atom_site_type_symbol 
_atom_site_fract_x 
_atom_site_fract_y 
_atom_site_fract_z 
_atom_site_charge 
N1          N  0.38746382  0.73359673  0.18231809    -0.27000
N2          N  0.39145751  0.72868698  0.17589400    -0.34900
C3          C  0.38564587  0.72765971  0.16887300     0.01300
C4          C  0.37758700  0.73221972  0.17089894     0.07400
C5          C  0.37890501  0.73580654  0.17955959    -0.05700
H6          H  0.38712704  0.72372230  0.16280883     0.08000
H7          H  0.37405165  0.73976518  0.18351197     0.09200
Cu8        Cu  0.40444953  0.72324649  0.17712799     0.44200
Cu9        Cu  0.39429586  0.73674655  0.19433192     0.42000
Cu10       Cu  0.41679845  0.72547162  0.19833713     0.43900
N11         N  0.41677851  0.71685822  0.17974857    -0.34400
N12         N  0.42128894  0.71738974  0.18755215    -0.28700
C13         C  0.42869029  0.71187868  0.18712259    -0.04800
C14         C  0.42886045  0.70776857  0.17857859     0.07500
C15         C  0.42116386  0.71108847  0.17414707     0.01300
H16         H  0.43338332  0.71074510  0.19273198     0.08900
H17         H  0.41883448  0.70935615  0.16735715     0.08000
N18         N  0.41031288  0.73421296  0.20749515    -0.35800
N19         N  0.40239216  0.73835478  0.20587855    -0.28000
C20         C  0.40006963  0.74334562  0.21319581    -0.03300
C21         C  0.40666875  0.74213524  0.21987913     0.05300
C22         C  0.41316507  0.73643399  0.21595842     0.03400
H23         H  0.39394964  0.74751271  0.21359677     0.08500
H24         H  0.41937498  0.73388440  0.21911119     0.07400
N25         N  0.31518317  0.72629632  0.11618354    -0.27000
N26         N  0.32010407  0.71921713  0.11355370    -0.34900
C27         C  0.32666183  0.71755662  0.11979782     0.01300
C28         C  0.32579173  0.72388050  0.12676781     0.07400
C29         C  0.31846714  0.72935966  0.12419311    -0.05700
H30         H  0.33206323  0.71255234  0.11897575     0.08000
H31         H  0.31598692  0.73538094  0.12766739     0.09200
Cu32       Cu  0.31841377  0.71328208  0.10090361     0.44200
Cu33       Cu  0.30506958  0.73191238  0.10798610     0.42000
Cu34       Cu  0.30271676  0.72386371  0.08434459     0.43900
N35         N  0.31742073  0.70949017  0.08737902    -0.34400
N36         N  0.31196258  0.71326459  0.08121261    -0.28700
C37         C  0.31375757  0.70939141  0.07303258    -0.04800
C38         C  0.32076383  0.70303402  0.07415071     0.07500
C39         C  0.32277287  0.70321986  0.08335365     0.01300
H40         H  0.31041959  0.71124624  0.06669920     0.08900
H41         H  0.32785011  0.69916239  0.08689940     0.08000
N42         N  0.29465710  0.73428431  0.09016368    -0.35800
N43         N  0.29562292  0.73701225  0.09872044    -0.28000
C44         C  0.28939950  0.74352182  0.10054787    -0.03300
C45         C  0.28426494  0.74517888  0.09277617     0.05300
C46         C  0.28772257  0.73908709  0.08634129     0.03400
H47         H  0.28848139  0.74656832  0.10720759     0.08500
H48         H  0.28530517  0.73815781  0.07942453     0.07400
N49         N  0.12146903  0.79559266  0.18605792    -0.27000
N50         N  0.11802563  0.80135020  0.18002879    -0.34900
C51         C  0.12422953  0.80275722  0.17338638     0.01300
C52         C  0.13200891  0.79769663  0.17536112     0.07400
C53         C  0.12999011  0.79317346  0.18342494    -0.05700
H54         H  0.12312709  0.80708870  0.16750635     0.08000
H55         H  0.13425286  0.78827683  0.18696940     0.09200
Cu56       Cu  0.10490863  0.80665736  0.18093650     0.44200
Cu57       Cu  0.11407928  0.79111570  0.19725949     0.42000
Cu58       Cu  0.08982839  0.79762496  0.19855179     0.43900
N59         N  0.09139460  0.81063115  0.18262900    -0.34400
N60         N  0.08575275  0.80721120  0.18882169    -0.28700
C61         C  0.07745301  0.81116973  0.18784618    -0.04800
C62         C  0.07795322  0.81750738  0.18080152     0.07500
C63         C  0.08689528  0.81687328  0.17762841     0.01300
H64         H  0.07148509  0.80940891  0.19187546     0.08900
H65         H  0.08994878  0.82069843  0.17208798     0.08000
N66         N  0.09641406  0.78923596  0.20803372    -0.35800
N67         N  0.10523662  0.78710783  0.20757092    -0.28000
C68         C  0.10746943  0.78187532  0.21475972    -0.03300
C69         C  0.09966910  0.78044963  0.21997110     0.05300
C70         C  0.09280566  0.78533912  0.21556463     0.03400
H71         H  0.11434813  0.77944595  0.21614855     0.08500
H72         H  0.08570979  0.78599546  0.21766620     0.07400
N73         N  0.19436027  0.79928328  0.11976643    -0.27000
N74         N  0.18876141  0.80586400  0.11711381    -0.34900
C75         C  0.18219365  0.80705519  0.12344419     0.01300
C76         C  0.18360859  0.80084178  0.13039853     0.07400
C77         C  0.19144196  0.79605732  0.12788768    -0.05700
H78         H  0.17650363  0.81176416  0.12279136     0.08000
H79         H  0.19466250  0.79051875  0.13156992     0.09200
Cu80       Cu  0.18942703  0.81202434  0.10446976     0.44200
Cu81       Cu  0.20521526  0.79472482  0.11167710     0.42000
Cu82       Cu  0.20647745  0.80415422  0.08838002     0.43900
N83         N  0.18974661  0.81606764  0.09098117    -0.34400
N84         N  0.19598806  0.81336221  0.08499665    -0.28700
C85         C  0.19393449  0.81704319  0.07679550    -0.04800
C86         C  0.18593668  0.82212712  0.07769794     0.07500
C87         C  0.18353036  0.82138841  0.08678492     0.01300
H88         H  0.19778505  0.81586747  0.07058401     0.08900
H89         H  0.17762251  0.82441243  0.09009875     0.08000
N90         N  0.21570715  0.79453610  0.09371322    -0.35800
N91         N  0.21526305  0.79125954  0.10212543    -0.28000
C92         C  0.22221084  0.78533071  0.10338294    -0.03300
C93         C  0.22737672  0.78481276  0.09542730     0.05300
C94         C  0.22293235  0.79068762  0.08940911     0.03400
H95         H  0.22344658  0.78168919  0.10969181     0.08500
H96         H  0.22464428  0.79194105  0.08234422     0.07400
N97         N  0.18796674  0.73141781  0.38565643    -0.27000
N98         N  0.18250950  0.72472955  0.38828822    -0.34900
C99         C  0.17612903  0.72330610  0.38183760     0.01300
C100        C  0.17758179  0.72946068  0.37482400     0.07400
C101        C  0.18522059  0.73444393  0.37742678    -0.05700
H102        H  0.17065289  0.71834833  0.38234966     0.08000
H103        H  0.18850709  0.73990441  0.37369141     0.09200
Cu104      Cu  0.18372836  0.71821621  0.40070902     0.44200
Cu105      Cu  0.19840727  0.73637042  0.39378888     0.42000
Cu106      Cu  0.20080139  0.72656939  0.41664782     0.43900
N107        N  0.18594976  0.71269089  0.41346842    -0.34400
N108        N  0.19202600  0.71579002  0.41940893    -0.28700
C109        C  0.19148525  0.71078308  0.42709603    -0.04800
C110        C  0.18487027  0.70413955  0.42581434     0.07500
C111        C  0.18144562  0.70560839  0.41715245     0.01300
H112        H  0.19559504  0.71188771  0.43314588     0.08900
H113        H  0.17593038  0.70194386  0.41384152     0.08000
N114        N  0.20889783  0.73704292  0.41158376    -0.35800
N115        N  0.20796812  0.74055357  0.40331540    -0.28000
C116        C  0.21449112  0.74687878  0.40199302    -0.03300
C117        C  0.21976890  0.74744555  0.40981250     0.05300
C118        C  0.21608916  0.74104003  0.41572406     0.03400
H119        H  0.21558809  0.75044517  0.39561872     0.08500
H120        H  0.21861068  0.73923262  0.42243221     0.07400
N121        N  0.11903989  0.73294976  0.31559250    -0.27000
N122        N  0.11563604  0.72665610  0.32108753    -0.34900
C123        C  0.12133485  0.72547268  0.32819272     0.01300
C124        C  0.12875514  0.73121378  0.32704551     0.07400
C125        C  0.12708656  0.73590158  0.31901087    -0.05700
H126        H  0.12022549  0.72068951  0.33370964     0.08000
H127        H  0.13135031  0.74109453  0.31592146     0.09200
Cu128      Cu  0.10352549  0.71986063  0.31857348     0.44200
Cu129      Cu  0.11233638  0.73707952  0.30383175     0.42000
Cu130      Cu  0.08990994  0.72639012  0.29906223     0.43900
N131        N  0.09106944  0.71400661  0.31542054    -0.34400
N132        N  0.08584652  0.71645309  0.30845519    -0.28700
C133        C  0.07796930  0.71161826  0.30879193    -0.04800
C134        C  0.07840381  0.70575755  0.31622934     0.07500
C135        C  0.08676362  0.70754802  0.32029633     0.01300
H136        H  0.07232908  0.71236089  0.30404513     0.08900
H137        H  0.08939096  0.70462783  0.32655282     0.08000
N138        N  0.09610117  0.73632518  0.29088801    -0.35800
N139        N  0.10417664  0.74007744  0.29263810    -0.28000
C140        C  0.10621135  0.74608649  0.28600991    -0.03300
C141        C  0.09903336  0.74628385  0.27981743     0.05300
C142        C  0.09280048  0.73990535  0.28307735     0.03400
H143        H  0.11259254  0.74984392  0.28563943     0.08500
H144        H  0.08632602  0.73800955  0.27999856     0.07400
N145        N  0.31350558  0.79262632  0.38431408    -0.27000
N146        N  0.31921858  0.79917945  0.38670836    -0.34900
C147        C  0.32586952  0.79990280  0.38041095     0.01300
C148        C  0.32434235  0.79341779  0.37374937     0.07400
C149        C  0.31639033  0.78894130  0.37639660    -0.05700
H150        H  0.33157064  0.80461445  0.38080412     0.08000
H151        H  0.31298215  0.78341368  0.37288904     0.09200
Cu152      Cu  0.31813815  0.80629923  0.39876922     0.44200
Cu153      Cu  0.30249212  0.78900613  0.39244023     0.42000
Cu154      Cu  0.30175336  0.79900519  0.41568957     0.43900
N155        N  0.31714351  0.81204512  0.41155402    -0.34400
N156        N  0.31126189  0.80941984  0.41791067    -0.28700
C157        C  0.31285570  0.81428540  0.42555618    -0.04800
C158        C  0.32007945  0.82024911  0.42386320     0.07500
C159        C  0.32262572  0.81856192  0.41493553     0.01300
H160        H  0.30929891  0.81326426  0.43196435     0.08900
H161        H  0.32822652  0.82168748  0.41121599     0.08000
N162        N  0.29252101  0.78935616  0.41064996    -0.35800
N163        N  0.29261954  0.78620556  0.40219371    -0.28000
C164        C  0.28530400  0.78080528  0.40093313    -0.03300
C165        C  0.28026803  0.78044320  0.40895902     0.05300
C166        C  0.28519018  0.78584636  0.41502842     0.03400
H167        H  0.28369434  0.77753020  0.39451680     0.08500
H168        H  0.28368946  0.78713939  0.42212614     0.07400
N169        N  0.38478751  0.78653966  0.31651373    -0.27000
N170        N  0.38773306  0.79327784  0.32169741    -0.34900
C171        C  0.38174053  0.79466358  0.32851202     0.01300
C172        C  0.37457928  0.78855043  0.32756330     0.07400
C173        C  0.37678051  0.78341951  0.31991015    -0.05700
H174        H  0.38247287  0.79985842  0.33369516     0.08000
H175        H  0.37292780  0.77781419  0.31704834     0.09200
Cu176      Cu  0.39964243  0.80038161  0.31918631     0.44200
Cu177      Cu  0.39188913  0.78248868  0.30494773     0.42000
Cu178      Cu  0.41335845  0.79501046  0.29944103     0.43900
N179        N  0.41192404  0.80666856  0.31628167    -0.34400
N180        N  0.41723058  0.80466090  0.30923248    -0.28700
C181        C  0.42495151  0.80973155  0.30977497    -0.04800
C182        C  0.42429289  0.81526951  0.31743385     0.07500
C183        C  0.41598943  0.81307515  0.32139890     0.01300
H184        H  0.43060571  0.80941519  0.30498240     0.08900
H185        H  0.41320593  0.81575494  0.32769736     0.08000
N186        N  0.40739128  0.78494234  0.29123260    -0.35800
N187        N  0.39980649  0.78042433  0.29336193    -0.28000
C188        C  0.39796281  0.77435742  0.28674684    -0.03300
C189        C  0.40471987  0.77498078  0.28014336     0.05300
C190        C  0.41051632  0.78184858  0.28313994     0.03400
H191        H  0.39203495  0.76991272  0.28670524     0.08500
H192        H  0.41662738  0.78432600  0.27974113     0.07400
C193        C  0.43015606  0.94838018  0.49664359     0.80500
N194        N  0.43012498  0.95496927  0.50316675    -0.77800
C195        C  0.43650499  0.96173967  0.50310614     0.82900
N196        N  0.44310035  0.96175631  0.49650976    -0.77700
C197        C  0.44328850  0.95519703  0.48995449     0.83000
N198        N  0.43666555  0.94866611  0.49000640    -0.79500
N199        N  0.35141845  0.86370744  0.48571792    -0.27000
N200        N  0.35759682  0.86815560  0.48084921    -0.34900
C201        C  0.35755092  0.86479693  0.47226718     0.01300
C202        C  0.35112652  0.85780042  0.47187412     0.07400
C203        C  0.34730891  0.85743915  0.48049404    -0.05700
H204        H  0.36188319  0.86720378  0.46676936     0.08000
H205        H  0.34181401  0.85303701  0.48280141     0.09200
Cu206      Cu  0.36552808  0.87841343  0.48673517     0.44200
Cu207      Cu  0.34883331  0.86607998  0.49926943     0.42000
Cu208      Cu  0.36165905  0.88225611  0.51185747     0.43900
N209        N  0.37225752  0.88806600  0.49477054    -0.34400
N210        N  0.37087579  0.88945042  0.50361064    -0.28700
C211        C  0.37644643  0.89620447  0.50643242    -0.04800
C212        C  0.38168061  0.89914549  0.49908875     0.07500
C213        C  0.37874414  0.89389556  0.49180251     0.01300
H214        H  0.37654370  0.89885965  0.51331223     0.08900
H215        H  0.38121309  0.89422463  0.48484168     0.08000
N216        N  0.35189789  0.87378995  0.51796142    -0.35800
N217        N  0.34713853  0.86793168  0.51303896    -0.28000
C218        C  0.34153407  0.86314687  0.51848479    -0.03300
C219        C  0.34266194  0.86616079  0.52733861     0.05300
C220        C  0.34941378  0.87284791  0.52679910     0.03400
H221        H  0.33724249  0.85759220  0.51618141     0.08500
H222        H  0.35236924  0.87663341  0.53240547     0.07400
C223        C  0.49694005  0.94608564  0.42610454     0.80500
N224        N  0.50380959  0.95236954  0.42610725    -0.77800
C225        C  0.50418175  0.95895824  0.43262047     0.82900
N226        N  0.49777061  0.95899487  0.43938649    -0.77700
C227        C  0.49107617  0.95254665  0.43968323     0.83000
N228        N  0.49065364  0.94614365  0.43298677    -0.79500
N229        N  0.48650169  0.85759651  0.35109607    -0.27000
N230        N  0.48126499  0.86267131  0.35642247    -0.34900
C231        C  0.47239233  0.86044189  0.35491600     0.01300
C232        C  0.47214316  0.85365019  0.34830547     0.07400
C233        C  0.48121498  0.85208480  0.34604836    -0.05700
H234        H  0.46657629  0.86374668  0.35811860     0.08000
H235        H  0.48379359  0.84737511  0.34097104     0.09200
Cu236      Cu  0.48696178  0.87276152  0.36473358     0.44200
Cu237      Cu  0.50052350  0.85878112  0.35030727     0.42000
Cu238      Cu  0.51225580  0.87668939  0.36187745     0.43900
N239        N  0.49456731  0.88286570  0.37137727    -0.34400
N240        N  0.50348549  0.88436074  0.37025967    -0.28700
C241        C  0.50591282  0.89164667  0.37530699    -0.04800
C242        C  0.49818850  0.89494526  0.37976770     0.07500
C243        C  0.49116412  0.88912956  0.37719669     0.01300
H244        H  0.51282955  0.89430124  0.37575034     0.08900
H245        H  0.48403898  0.88953188  0.37927217     0.08000
N246        N  0.51889589  0.86773798  0.35289178    -0.35800
N247        N  0.51434737  0.86108056  0.34885447    -0.28000
C248        C  0.52011205  0.85617974  0.34368506    -0.03300
C249        C  0.52877461  0.85990759  0.34437449     0.05300
C250        C  0.52780134  0.86725017  0.35029828     0.03400
H251        H  0.51813456  0.85027307  0.33972892     0.08500
H252        H  0.53317985  0.87171648  0.35272672     0.07400
N253        N  0.65165420  0.02630623  0.34827668    -0.27000
N254        N  0.64560375  0.03115249  0.35295031    -0.34900
C255        C  0.64616050  0.03992168  0.35020512     0.01300
C256        C  0.65273925  0.04050923  0.34335448     0.07400
C257        C  0.65612891  0.03176693  0.34243280    -0.05700
H258        H  0.64208362  0.04543909  0.35296076     0.08000
H259        H  0.66164897  0.02955029  0.33800537     0.09200
Cu260      Cu  0.63687417  0.02529157  0.36264545     0.44200
Cu261      Cu  0.65397609  0.01253237  0.34991709     0.42000
Cu262      Cu  0.63926770  0.00030133  0.36469511     0.43900
N263        N  0.62888010  0.01703940  0.37115801    -0.34400
N264        N  0.62983218  0.00808867  0.37182714    -0.28700
C265        C  0.62363453  0.00483748  0.37779813    -0.04800
C266        C  0.61853686  0.01205194  0.38112415     0.07500
C267        C  0.62197524  0.01968044  0.37669566     0.01300
H268        H  0.62279881  0.99769874  0.37944720     0.08900
H269        H  0.61964399  0.02664091  0.37746704     0.08000
N270        N  0.64951471  0.99400967  0.35721416    -0.35800
N271        N  0.65517050  0.99866995  0.35193149    -0.28000
C272        C  0.66105559  0.99289154  0.34788622    -0.03300
C273        C  0.65899553  0.98415534  0.35076719     0.05300
C274        C  0.65156085  0.98508476  0.35659185     0.03400
H275        H  0.66616331  0.99485582  0.34288474     0.08500
H276        H  0.64781886  0.97968238  0.35997283     0.07400
C277        C  0.56776950  0.01290703  0.42812202     0.80500
N278        N  0.56104580  0.00645902  0.42809821    -0.77800
C279        C  0.55426991  0.00653027  0.43449031     0.82900
N280        N  0.55442526  0.01289803  0.44121031    -0.77700
C281        C  0.56115101  0.01930103  0.44142803     0.83000
N282        N  0.56764308  0.01939137  0.43474811    -0.79500
N283        N  0.34058918  0.02906916  0.64072982    -0.27000
N284        N  0.34817289  0.03336843  0.63830685    -0.34900
C285        C  0.34848763  0.04145599  0.64265935     0.01300
C286        C  0.34072715  0.04212752  0.64810701     0.07400
C287        C  0.33587098  0.03420304  0.64665379    -0.05700
H288        H  0.35420972  0.04614916  0.64239653     0.08000
H289        H  0.32973037  0.03200806  0.65020060     0.09200
Cu290      Cu  0.35786233  0.02705950  0.63009665     0.44200
Cu291      Cu  0.33800705  0.01566772  0.63775613     0.42000
Cu292      Cu  0.35462943  0.00202448  0.62637712     0.43900
N293        N  0.36537883  0.01907937  0.62111606    -0.34400
N294        N  0.36412532  0.01027364  0.61953087    -0.28700
C295        C  0.37006404  0.00761047  0.61298880    -0.04800
C296        C  0.37527284  0.01507505  0.61039552     0.07500
C297        C  0.37217204  0.02217842  0.61573423     0.01300
H298        H  0.37069345  0.00070943  0.61047250     0.08900
H299        H  0.37464992  0.02912726  0.61568816     0.08000
N300        N  0.34394546  0.99642825  0.63409935    -0.35800
N301        N  0.33769205  0.00169738  0.63795512    -0.28000
C302        C  0.33165102  0.99654999  0.64254367    -0.03300
C303        C  0.33418687  0.98753802  0.64164361     0.05300
C304        C  0.34201909  0.98766827  0.63619407     0.03400
H305        H  0.32591657  0.99920797  0.64643252     0.08500
H306        H  0.34594990  0.98185697  0.63385921     0.07400
C307        C  0.42803496  0.01641063  0.56584222     0.80500
N308        N  0.43497031  0.02258625  0.56604761    -0.77800
C309        C  0.44204045  0.02203327  0.56001141     0.82900
N310        N  0.44202787  0.01535560  0.55358023    -0.77700
C311        C  0.43506906  0.00917999  0.55321825     0.83000
N312        N  0.42822679  0.00964289  0.55951256    -0.79500
N313        N  0.48496729  0.16625473  0.64501107    -0.27000
N314        N  0.48012309  0.16061295  0.63992340    -0.34900
C315        C  0.47113458  0.16178991  0.64190819     0.01300
C316        C  0.47042099  0.16853030  0.64854952     0.07400
C317        C  0.47934070  0.17115682  0.65030325    -0.05700
H318        H  0.46562574  0.15767867  0.63916296     0.08000
H319        H  0.48163375  0.17595861  0.65542229     0.09200
Cu320      Cu  0.48668951  0.15121002  0.63144900     0.44200
Cu321      Cu  0.49896977  0.16618445  0.64582928     0.42000
Cu322      Cu  0.51248639  0.15009920  0.63406425     0.43900
N323        N  0.49552973  0.14261943  0.62419737    -0.34400
N324        N  0.50457621  0.14213135  0.62521257    -0.28700
C325        C  0.50788747  0.13571742  0.61951680    -0.04800
C326        C  0.50062650  0.13195432  0.61472148     0.07500
C327        C  0.49292638  0.13656924  0.61779571     0.01300
H328        H  0.51509083  0.13402703  0.61882356     0.08900
H329        H  0.48590570  0.13552827  0.61560711     0.08000
N330        N  0.51815810  0.15936893  0.64330021    -0.35800
N331        N  0.51285416  0.16526142  0.64760710    -0.28000
C332        C  0.51797226  0.17057857  0.65300050    -0.03300
C333        C  0.52705224  0.16810797  0.65195685     0.05300
C334        C  0.52694899  0.16085181  0.64585093     0.03400
H335        H  0.51524159  0.17590782  0.65732488     0.08500
H336        H  0.53282150  0.15712447  0.64328609     0.07400
C337        C  0.49960038  0.08211461  0.56698527     0.80500
N338        N  0.49283417  0.07572791  0.56691853    -0.77800
C339        C  0.49266018  0.06900687  0.56053293     0.82900
N340        N  0.49957226  0.06852376  0.55434217    -0.77700
C341        C  0.50649270  0.07470898  0.55436164     0.83000
N342        N  0.50645137  0.08151919  0.56065638    -0.79500
C343        C  0.56479763  0.08293465  0.49543420     0.80500
N344        N  0.56495668  0.07660528  0.48867101    -0.77800
C345        C  0.55923859  0.06928319  0.48894819     0.82900
N346        N  0.55302393  0.06860737  0.49587045    -0.77700
C347        C  0.55279921  0.07484078  0.50272947     0.83000
N348        N  0.55882982  0.08192043  0.50249310    -0.79500
N349        N  0.64014132  0.17005942  0.48204264    -0.27000
N350        N  0.63678486  0.16297629  0.47760432    -0.34900
C351        C  0.64052538  0.16275443  0.46916654     0.01300
C352        C  0.64660527  0.16999444  0.46841978     0.07400
C353        C  0.64611838  0.17448788  0.47667245    -0.05700
H354        H  0.63934490  0.15744587  0.46418856     0.08000
H355        H  0.65018147  0.18028141  0.47879681     0.09200
Cu356      Cu  0.62825725  0.15361821  0.48412160     0.44200
Cu357      Cu  0.63780663  0.17258106  0.49565591     0.42000
Cu358      Cu  0.62727342  0.15553875  0.50956655     0.43900
N359        N  0.62027812  0.14546519  0.49266954    -0.34400
N360        N  0.61990223  0.14605311  0.50169418    -0.28700
C361        C  0.61392034  0.13975161  0.50481293    -0.04800
C362        C  0.61029555  0.13504086  0.49742037     0.07500
C363        C  0.61458337  0.13881293  0.48987137     0.01300
H364        H  0.61243499  0.13861410  0.51195682     0.08900
H365        H  0.61355936  0.13692104  0.48280840     0.08000
N366        N  0.63461757  0.16659397  0.51501655    -0.35800
N367        N  0.63801276  0.17303614  0.50968406    -0.28000
C368        C  0.64248864  0.17920298  0.51476354    -0.03300
C369        C  0.64205534  0.17653623  0.52378490     0.05300
C370        C  0.63696528  0.16850354  0.52373759     0.03400
H371        H  0.64620797  0.18497512  0.51202474     0.08500
H372        H  0.63522515  0.16431346  0.52956577     0.07400
N373        N  0.10912630  0.19274839  0.77367896    -0.27000
N374        N  0.10732324  0.18761590  0.78086424    -0.34900
C375        C  0.11340152  0.18075900  0.78123073     0.01300
C376        C  0.11929483  0.18156044  0.77386827     0.07400
C377        C  0.11642996  0.18928418  0.76923180    -0.05700
H378        H  0.11350975  0.17555725  0.78646862     0.08000
H379        H  0.11951742  0.19228611  0.76321979     0.09200
Cu380      Cu  0.09678033  0.19021654  0.78986839     0.44200
Cu381      Cu  0.10155592  0.20425381  0.77067913     0.42000
Cu382      Cu  0.08258030  0.21017940  0.78613897     0.43900
N383        N  0.08596481  0.19380726  0.79819213    -0.34400
N384        N  0.08071121  0.20105472  0.79694854    -0.28700
C385        C  0.07424835  0.20120062  0.80354228    -0.04800
C386        C  0.07559777  0.19374276  0.80923725     0.07500
C387        C  0.08301960  0.18916804  0.80553528     0.01300
H388        H  0.06891990  0.20631465  0.80411646     0.08900
H389        H  0.08590898  0.18276502  0.80779859     0.08000
N390        N  0.08646809  0.21789870  0.77477078    -0.35800
N391        N  0.09335786  0.21565506  0.76931058    -0.28000
C392        C  0.09449263  0.22219427  0.76300428    -0.03300
C393        C  0.08798041  0.22888282  0.76444625     0.05300
C394        C  0.08300940  0.22596954  0.77199307     0.03400
H395        H  0.09984447  0.22218719  0.75786770     0.08500
H396        H  0.07757714  0.22962624  0.77545583     0.07400
N397        N  0.17659926  0.12140224  0.76883724    -0.27000
N398        N  0.17028255  0.11797388  0.77432966    -0.34900
C399        C  0.16320746  0.12381128  0.77490607     0.01300
C400        C  0.16514741  0.13134564  0.76955619     0.07400
C401        C  0.17367284  0.12953456  0.76571633    -0.05700
H402        H  0.15718175  0.12274110  0.77910596     0.08000
H403        H  0.17748475  0.13376213  0.76100267     0.09200
Cu404      Cu  0.17168828  0.10577910  0.78118862     0.44200
Cu405      Cu  0.18910101  0.11500795  0.76648740     0.42000
Cu406      Cu  0.19371146  0.09456551  0.78032355     0.43900
N407        N  0.17463950  0.09412095  0.78848961    -0.34400
N408        N  0.18275842  0.09006332  0.78851595    -0.28700
C409        C  0.18248309  0.08308651  0.79453317    -0.04800
C410        C  0.17373029  0.08271104  0.79830540     0.07500
C411        C  0.16898614  0.08983139  0.79433509     0.01300
H412        H  0.18821413  0.07864717  0.79607755     0.08900
H413        H  0.16201099  0.09192980  0.79580394     0.08000
N414        N  0.20323832  0.10063107  0.77140697    -0.35800
N415        N  0.20145420  0.10790804  0.76636236    -0.28000
C416        C  0.20895191  0.11005188  0.76142778    -0.03300
C417        C  0.21592542  0.10395746  0.76352892     0.05300
C418        C  0.21197603  0.09800644  0.76979839     0.03400
H419        H  0.20919206  0.11556655  0.75653518     0.08500
H420        H  0.21525481  0.09222713  0.77302710     0.07400
N421        N  0.18095705  0.39328502  0.72326601    -0.27000
N422        N  0.17343880  0.39729885  0.72021730    -0.34900
C423        C  0.16646044  0.39132291  0.72042664     0.01300
C424        C  0.16969339  0.38313727  0.72387815     0.07400
C425        C  0.17896290  0.38460669  0.72550632    -0.05700
H426        H  0.15964476  0.39273016  0.71784083     0.08000
H427        H  0.18391383  0.37970180  0.72800718     0.09200
Cu428      Cu  0.17322316  0.41047784  0.71524395     0.44200
Cu429      Cu  0.19344566  0.40001815  0.72398423     0.42000
Cu430      Cu  0.19418383  0.42381113  0.71612077     0.43900
N431        N  0.17456246  0.42322626  0.70938557    -0.34400
N432        N  0.18218087  0.42812995  0.70952027    -0.28700
C433        C  0.18077604  0.43577801  0.70459608    -0.04800
C434        C  0.17181359  0.43571011  0.70131841     0.07500
C435        C  0.16815216  0.42758410  0.70442990     0.01300
H436        H  0.18592696  0.44095566  0.70338786     0.08900
H437        H  0.16144187  0.42482074  0.70289248     0.08000
N438        N  0.20493510  0.41725112  0.72300114    -0.35800
N439        N  0.20465487  0.40858783  0.72551798    -0.28000
C440        C  0.21245377  0.40647030  0.72993888    -0.03300
C441        C  0.21798687  0.41411660  0.73024041     0.05300
C442        C  0.21295267  0.42087091  0.72586759     0.03400
H443        H  0.21378665  0.39994266  0.73311554     0.08500
H444        H  0.21490475  0.42792768  0.72498524     0.07400
N445        N  0.11746720  0.31932863  0.71699097    -0.27000
N446        N  0.11602317  0.32389231  0.70935166    -0.34900
C447        C  0.12279368  0.32997286  0.70815492     0.01300
C448        C  0.12891443  0.32918350  0.71533489     0.07400
C449        C  0.12526111  0.32240275  0.72087184    -0.05700
H450        H  0.12285158  0.33505963  0.70280609     0.08000
H451        H  0.12785957  0.32014830  0.72741479     0.09200
Cu452      Cu  0.10424614  0.32279103  0.70162308     0.44200
Cu453      Cu  0.10814384  0.30980560  0.72190329     0.42000
Cu454      Cu  0.08628031  0.30789034  0.70931408     0.43900
N455        N  0.09126970  0.32272702  0.69598542    -0.34400
N456        N  0.08451323  0.31747290  0.69891005    -0.28700
C457        C  0.07679191  0.31969530  0.69434653    -0.04800
C458        C  0.07883808  0.32660585  0.68816339     0.07500
C459        C  0.08808162  0.32837528  0.68949448     0.01300
H460        H  0.07012049  0.31676713  0.69573566     0.08900
H461        H  0.09216402  0.33355847  0.68615356     0.08000
N462        N  0.09031314  0.29923094  0.71990878    -0.35800
N463        N  0.09803674  0.30018274  0.72459148    -0.28000
C464        C  0.09855704  0.29354659  0.73090112    -0.03300
C465        C  0.09083572  0.28812696  0.73017028     0.05300
C466        C  0.08579760  0.29185005  0.72306720     0.03400
H467        H  0.10431355  0.29253935  0.73546699     0.08500
H468        H  0.07936710  0.28934434  0.72035634     0.07400
N469        N  0.38474492  0.19305757  0.72320259    -0.27000
N470        N  0.38705083  0.18787553  0.71620566    -0.34900
C471        C  0.38132752  0.18075166  0.71571057     0.01300
C472        C  0.37492529  0.18152031  0.72262943     0.07400
C473        C  0.37737059  0.18934462  0.72736500    -0.05700
H474        H  0.38191572  0.17532866  0.71074930     0.08000
H475        H  0.37401990  0.19214011  0.73333578     0.09200
Cu476      Cu  0.39788519  0.19053207  0.70766358     0.44200
Cu477      Cu  0.39214274  0.20475524  0.72638506     0.42000
Cu478      Cu  0.41261382  0.20965788  0.71204697     0.43900
N479        N  0.40956942  0.19310860  0.70028716    -0.34400
N480        N  0.41523467  0.19994251  0.70191572    -0.28700
C481        C  0.42250736  0.19917071  0.69625955    -0.04800
C482        C  0.42134625  0.19142269  0.69092312     0.07500
C483        C  0.41297598  0.18787662  0.69358738     0.01300
H484        H  0.42831554  0.20376971  0.69618502     0.08900
H485        H  0.40956047  0.18191625  0.69090442     0.08000
N486        N  0.40796864  0.21790355  0.72277331    -0.35800
N487        N  0.40071446  0.21600810  0.72789727    -0.28000
C488        C  0.39956070  0.22269495  0.73405163    -0.03300
C489        C  0.40638716  0.22916756  0.73284862     0.05300
C490        C  0.41155461  0.22591276  0.72555486     0.03400
H491        H  0.39403593  0.22287730  0.73900176     0.08500
H492        H  0.41728175  0.22925406  0.72225801     0.07400
N493        N  0.31798823  0.12155114  0.72843638    -0.27000
N494        N  0.32462603  0.11740987  0.72389526    -0.34900
C495        C  0.33225157  0.12253921  0.72413138     0.01300
C496        C  0.33042288  0.13029180  0.72917869     0.07400
C497        C  0.32125323  0.12949561  0.73170250    -0.05700
H498        H  0.33851888  0.12092063  0.72050254     0.08000
H499        H  0.31722410  0.13439064  0.73550977     0.09200
Cu500      Cu  0.32290039  0.10534035  0.71699043     0.44200
Cu501      Cu  0.30485557  0.11599621  0.72964501     0.42000
Cu502      Cu  0.30070862  0.09450157  0.71730943     0.43900
N503        N  0.31979709  0.09395458  0.70943612    -0.34400
N504        N  0.31168244  0.08992590  0.70937425    -0.28700
C505        C  0.31189125  0.08309512  0.70323286    -0.04800
C506        C  0.32059145  0.08281077  0.69933222     0.07500
C507        C  0.32535143  0.08987053  0.70338269     0.01300
H508        H  0.30609224  0.07879256  0.70158323     0.08900
H509        H  0.33220238  0.09220702  0.70173479     0.08000
N510        N  0.29127556  0.10064239  0.72610895    -0.35800
N511        N  0.29280664  0.10834105  0.73056746    -0.28000
C512        C  0.28552955  0.11013835  0.73595701    -0.03300
C513        C  0.27912723  0.10323593  0.73490915     0.05300
C514        C  0.28295307  0.09740193  0.72851815     0.03400
H515        H  0.28495357  0.11604763  0.74033284     0.08500
H516        H  0.27999641  0.09114504  0.72597054     0.07400
N517        N  0.37727760  0.32030355  0.78094570    -0.27000
N518        N  0.37951878  0.32580274  0.78772354    -0.34900
C519        C  0.37301350  0.33221674  0.78864129     0.01300
C520        C  0.36632030  0.33079223  0.78209555     0.07400
C521        C  0.36921610  0.32310696  0.77735906    -0.05700
H522        H  0.37327611  0.33770103  0.79356723     0.08000
H523        H  0.36575321  0.31978366  0.77174355     0.09200
Cu524      Cu  0.39161570  0.32493633  0.79505117     0.44200
Cu525      Cu  0.38577780  0.30963917  0.77681904     0.42000
Cu526      Cu  0.40862005  0.30874007  0.78764534     0.43900
N527        N  0.40468358  0.32429792  0.80053051    -0.34400
N528        N  0.41102621  0.31844618  0.79780213    -0.28700
C529        C  0.41889769  0.32021020  0.80231065    -0.04800
C530        C  0.41744690  0.32760162  0.80803734     0.07500
C531        C  0.40832346  0.32993910  0.80678611     0.01300
H532        H  0.42529757  0.31659456  0.80126571     0.08900
H533        H  0.40462376  0.33544242  0.81005473     0.08000
N534        N  0.40418392  0.29978292  0.77746912    -0.35800
N535        N  0.39594133  0.30012431  0.77365891    -0.28000
C536        C  0.39525069  0.29338773  0.76747866    -0.03300
C537        C  0.40346322  0.28860562  0.76725438     0.05300
C538        C  0.40892347  0.29278741  0.77378114     0.03400
H539        H  0.38911095  0.29195823  0.76357707     0.08500
H540        H  0.41583795  0.29088118  0.77571019     0.07400
N541        N  0.30932855  0.39150063  0.78125031    -0.27000
N542        N  0.31594053  0.39461505  0.78656430    -0.34900
C543        C  0.32284668  0.38853681  0.78673193     0.01300
C544        C  0.32042984  0.38117582  0.78133517     0.07400
C545        C  0.31182973  0.38332892  0.77789336    -0.05700
H546        H  0.32912204  0.38935455  0.79060551     0.08000
H547        H  0.30774486  0.37934419  0.77319940     0.09200
Cu548      Cu  0.31508678  0.40692724  0.79341213     0.44200
Cu549      Cu  0.29743332  0.39881638  0.77880087     0.42000
Cu550      Cu  0.29553098  0.42170364  0.78892147     0.43900
N551        N  0.31301833  0.41931004  0.79987729    -0.34400
N552        N  0.30598362  0.42481273  0.79833696    -0.28700
C553        C  0.30704520  0.43236266  0.80350348    -0.04800
C554        C  0.31510220  0.43151929  0.80857053     0.07500
C555        C  0.31868016  0.42316154  0.80600169     0.01300
H556        H  0.30248844  0.43818675  0.80328940     0.08900
H557        H  0.32505528  0.42014208  0.80830165     0.08000
N558        N  0.28619885  0.41622934  0.77943162    -0.35800
N559        N  0.28683877  0.40784296  0.77615364    -0.28000
C560        C  0.27979611  0.40627744  0.77044484    -0.03300
C561        C  0.27449294  0.41405742  0.76992925     0.05300
C562        C  0.27871752  0.42024739  0.77573519     0.03400
H563        H  0.27871620  0.39996797  0.76678101     0.08500
H564        H  0.27646443  0.42710869  0.77723480     0.07400
N565        N  0.35073107  0.65836632  0.98296355    -0.27000
N566        N  0.35706883  0.65418455  0.97804835    -0.34900
C567        C  0.35528669  0.65573854  0.96911827     0.01300
C568        C  0.34734607  0.66100148  0.96849853     0.07400
C569        C  0.34477254  0.66260521  0.97742456    -0.05700
H570        H  0.35934661  0.65312780  0.96351350     0.08000
H571        H  0.33903660  0.66668472  0.97976109     0.09200
Cu572      Cu  0.36735767  0.64636805  0.98435239     0.44200
Cu573      Cu  0.35040462  0.65843624  0.99698083     0.42000
Cu574      Cu  0.36677822  0.64604208  0.00999105     0.43900
N575        N  0.37579021  0.63832157  0.99277032    -0.34400
N576        N  0.37546840  0.63809114  0.00181997    -0.28700
C577        C  0.38158378  0.63188054  0.00485733    -0.04800
C578        C  0.38608284  0.62809254  0.99742918     0.07500
C579        C  0.38215591  0.63229329  0.98988723     0.01300
H580        H  0.38270037  0.63025724  0.01197461     0.08900
H581        H  0.38364094  0.63090325  0.98278854     0.08000
N582        N  0.35714032  0.65478086  0.01599316    -0.35800
N583        N  0.35112515  0.65927444  0.01095664    -0.28000
C584        C  0.34610176  0.66477584  0.01629427    -0.03300
C585        C  0.34897972  0.66370077  0.02520331     0.05300
C586        C  0.35602988  0.65730720  0.02479507     0.03400
H587        H  0.34086687  0.66940777  0.01382463     0.08500
H588        H  0.36026669  0.65496640  0.03039562     0.07400
C589        C  0.43424773  0.57805785  0.99558416     0.80500
N590        N  0.44165129  0.57829257  0.00119447    -0.77800
C591        C  0.44870478  0.57231453  0.00023741     0.82900
N592        N  0.44831941  0.56592711  0.99350643    -0.77700
C593        C  0.44112842  0.56578454  0.98753224     0.83000
N594        N  0.43408436  0.57180902  0.98869980    -0.79500
C595        C  0.43430419  0.51094916  0.92456122     0.80500
N596        N  0.44059401  0.50408385  0.92494598    -0.77800
C597        C  0.44708674  0.50394816  0.93161687     0.82900
N598        N  0.44735216  0.51076958  0.93787620    -0.77700
C599        C  0.44134676  0.51786454  0.93738588     0.83000
N600        N  0.43479557  0.51786214  0.93074399    -0.79500
N601        N  0.34982682  0.52541946  0.84483394    -0.27000
N602        N  0.35490937  0.53036957  0.85041383    -0.34900
C603        C  0.35377691  0.53925495  0.84824935     0.01300
C604        C  0.34765009  0.53985632  0.84097374     0.07400
C605        C  0.34537160  0.53092772  0.83901133    -0.05700
H606        H  0.35734990  0.54481337  0.85154485     0.08000
H607        H  0.34079606  0.52858091  0.83368897     0.09200
Cu608      Cu  0.36333193  0.52429060  0.86028877     0.44200
Cu609      Cu  0.34923905  0.51136516  0.84502747     0.42000
Cu610      Cu  0.36375812  0.49879019  0.85999461     0.43900
N611        N  0.37165020  0.51610124  0.86861794    -0.34400
N612        N  0.37203992  0.50707463  0.86829376    -0.28700
C613        C  0.37856703  0.50417432  0.87415542    -0.04800
C614        C  0.38235076  0.51167066  0.87849799     0.07500
C615        C  0.37781899  0.51910651  0.87478422     0.01300
H616        H  0.38042965  0.49711059  0.87518939     0.08900
H617        H  0.37911271  0.52621159  0.87625199     0.08000
N618        N  0.35445792  0.49246730  0.85106793    -0.35800
N619        N  0.34918368  0.49730214  0.84554716    -0.28000
C620        C  0.34405097  0.49166386  0.84044816    -0.03300
C621        C  0.34605334  0.48276821  0.84287302     0.05300
C622        C  0.35274683  0.48353020  0.84962347     0.03400
H623        H  0.33920199  0.49389190  0.83530477     0.08500
H624        H  0.35628240  0.47801287  0.85304860     0.07400
C625        C  0.50041203  0.43978174  0.92891336     0.80500
N626        N  0.49375297  0.44627721  0.92926406    -0.77800
C627        C  0.49385787  0.45288915  0.93578535     0.82900
N628        N  0.50085043  0.45293588  0.94194474    -0.77700
C629        C  0.50759533  0.44649996  0.94171688     0.83000
N630        N  0.50722629  0.43981930  0.93527614    -0.79500
N631        N  0.48413899  0.35854792  0.84648834    -0.27000
N632        N  0.47935665  0.36366954  0.85218618    -0.34900
C633        C  0.47032340  0.36234830  0.85051792     0.01300
C634        C  0.46945197  0.35605378  0.84345590     0.07400
C635        C  0.47838411  0.35388133  0.84108290    -0.05700
H636        H  0.46483166  0.36591284  0.85398955     0.08000
H637        H  0.48056655  0.34926105  0.83574653     0.09200
Cu638      Cu  0.48584094  0.37236081  0.86156859     0.44200
Cu639      Cu  0.49826863  0.35830308  0.84591218     0.42000
Cu640      Cu  0.51137309  0.37363783  0.85957060     0.43900
N641        N  0.49437126  0.38059282  0.86968307    -0.34400
N642        N  0.50341987  0.38114491  0.86882190    -0.28700
C643        C  0.50664032  0.38723164  0.87490987    -0.04800
C644        C  0.49935043  0.39061543  0.88000996     0.07500
C645        C  0.49167361  0.38629236  0.87639658     0.01300
H646        H  0.51377630  0.38920570  0.87538226     0.08900
H647        H  0.48460668  0.38723304  0.87849827     0.08000
N648        N  0.51740418  0.36465750  0.85022637    -0.35800
N649        N  0.51238401  0.35893158  0.84538588    -0.28000
C650        C  0.51790470  0.35364625  0.84031167    -0.03300
C651        C  0.52689565  0.35617054  0.84190601     0.05300
C652        C  0.52635464  0.36317175  0.84827630     0.03400
H653        H  0.51553703  0.34826288  0.83584937     0.08500
H654        H  0.53203321  0.36667738  0.85149056     0.07400
N655        N  0.65273315  0.36151228  0.01252757    -0.27000
N656        N  0.64897013  0.36811796  0.01738425    -0.34900
C657        C  0.65152173  0.36703342  0.02619462     0.01300
C658        C  0.65711519  0.35935850  0.02676797     0.07400
C659        C  0.65767132  0.35606579  0.01798315    -0.05700
H660        H  0.64924211  0.37129783  0.03177922     0.08000
H661        H  0.66133920  0.35005872  0.01571487     0.09200
Cu662      Cu  0.64013233  0.37764670  0.01129391     0.44200
Cu663      Cu  0.65106502  0.35983605  0.99875308     0.42000
Cu664      Cu  0.63781462  0.37527684  0.98588190     0.43900
N665        N  0.63109794  0.38514074  0.00299768    -0.34400
N666        N  0.63024943  0.38413883  0.99403851    -0.28700
C667        C  0.62355373  0.38968803  0.99099980    -0.04800
C668        C  0.61996052  0.39441149  0.99833957     0.07500
C669        C  0.62497813  0.39144930  0.00582074     0.01300
H670        H  0.62151415  0.39029361  0.98392596     0.08900
H671        H  0.62413567  0.39361817  0.01282837     0.08000
N672        N  0.64542757  0.36493936  0.97980987    -0.35800
N673        N  0.65006431  0.35905326  0.98483528    -0.28000
C674        C  0.65419063  0.35295159  0.97941269    -0.03300
C675        C  0.65216889  0.35512691  0.97048403     0.05300
C676        C  0.64656512  0.36277151  0.97093153     0.03400
H677        H  0.65852166  0.34743892  0.98179714     0.08500
H678        H  0.64350887  0.36641911  0.96527198     0.07400
C679        C  0.57110823  0.44356487  0.99659071     0.80500
N680        N  0.56462675  0.44357608  0.98988275    -0.77800
C681        C  0.55797331  0.45011927  0.98962165     0.82900
N682        N  0.55782550  0.45659735  0.99626215    -0.77700
C683        C  0.56431857  0.45675781  0.00293208     0.83000
N684        N  0.57103841  0.45032596  0.00292584    -0.79500
C685        C  0.57019107  0.51154988  0.06624188     0.80500
N686        N  0.57064837  0.50501446  0.05964994    -0.77800
C687        C  0.56416690  0.50456573  0.05295453     0.82900
N688        N  0.55735119  0.51092354  0.05279201    -0.77700
C689        C  0.55688476  0.51754564  0.05924869     0.83000
N690        N  0.56341797  0.51789333  0.06583732    -0.79500
N691        N  0.65964120  0.50204454  0.13940034    -0.27000
N692        N  0.65333574  0.49723687  0.13508077    -0.34900
C693        C  0.65445981  0.48836840  0.13720759     0.01300
C694        C  0.66172797  0.48767205  0.14328139     0.07400
C695        C  0.66489838  0.49645864  0.14442975    -0.05700
H696        H  0.65011057  0.48290011  0.13480623     0.08000
H697        H  0.67049805  0.49867017  0.14874559     0.09200
Cu698      Cu  0.64316704  0.50346176  0.12731174     0.44200
Cu699      Cu  0.66019755  0.51601504  0.13908163     0.42000
Cu700      Cu  0.64213782  0.52873881  0.12822006     0.43900
N701        N  0.63332254  0.51146760  0.12085044    -0.34400
N702        N  0.63287605  0.52047592  0.12116804    -0.28700
C703        C  0.62553425  0.52325341  0.11630118    -0.04800
C704        C  0.62108066  0.51564604  0.11284786     0.07500
C705        C  0.62631756  0.50832348  0.11577815     0.01300
H706        H  0.62356468  0.53030349  0.11537002     0.08900
H707        H  0.62527459  0.50120736  0.11417626     0.08000
N708        N  0.65213696  0.53471473  0.13647413    -0.35800
N709        N  0.65873773  0.52986837  0.14032933    -0.28000
C710        C  0.66360091  0.53518655  0.14596705    -0.03300
C711        C  0.65998968  0.54387038  0.14564494     0.05300
C712        C  0.65269662  0.54335814  0.13955765     0.03400
H713        H  0.66910094  0.53278966  0.15032587     0.08500
H714        H  0.64782925  0.54869871  0.13794481     0.07400
C715        C  0.50202831  0.58015707  0.06428085     0.80500
N716        N  0.49542999  0.57995778  0.05768779    -0.77800
C717        C  0.49568610  0.57350799  0.05100106     0.82900
N718        N  0.50254336  0.56721420  0.05103222    -0.77700
C719        C  0.50890088  0.56709946  0.05780459     0.83000
N720        N  0.50868742  0.57366224  0.06433268    -0.79500
N721        N  0.51691922  0.66529974  0.14016733    -0.27000
N722        N  0.52163362  0.65808009  0.13751206    -0.34900
C723        C  0.53036125  0.65892914  0.14052894     0.01300
C724        C  0.53107392  0.66709515  0.14529579     0.07400
C725        C  0.52240546  0.67090040  0.14488193    -0.05700
H726        H  0.53557743  0.65371159  0.13989429     0.08000
H727        H  0.52006440  0.67698369  0.14835412     0.09200
Cu728      Cu  0.51517979  0.64727221  0.13079999     0.44200
Cu729      Cu  0.50288539  0.66640903  0.13935445     0.42000
Cu730      Cu  0.48954410  0.64779575  0.13159415     0.43900
N731        N  0.50647202  0.63865984  0.12341575    -0.34400
N732        N  0.49736893  0.63899103  0.12357226    -0.28700
C733        C  0.49403714  0.63294168  0.11751377    -0.04800
C734        C  0.50135228  0.62859813  0.11331710     0.07500
C735        C  0.50911587  0.63231701  0.11730883     0.01300
H736        H  0.48680544  0.63177921  0.11628501     0.08900
H737        H  0.51618997  0.63068936  0.11571505     0.08000
N738        N  0.48391744  0.65845780  0.13911715    -0.35800
N739        N  0.48899552  0.66546563  0.14163840    -0.28000
C740        C  0.48378312  0.67144178  0.14622093    -0.03300
C741        C  0.47494354  0.66806541  0.14669000     0.05300
C742        C  0.47523464  0.65980619  0.14206894     0.03400
H743        H  0.48628001  0.67776405  0.14909320     0.08500
H744        H  0.46955858  0.65523460  0.14077374     0.07400
N745        N  0.61869720  0.22908126  0.68416634    -0.27000
N746        N  0.61596621  0.22220366  0.67904157    -0.34900
C747        C  0.62189984  0.22112121  0.67208899     0.01300
C748        C  0.62881593  0.22755271  0.67294333     0.07400
C749        C  0.62648067  0.23255734  0.68063018    -0.05700
H750        H  0.62105590  0.21618831  0.66667413     0.08000
H751        H  0.63016101  0.23830769  0.68344023     0.09200
Cu752      Cu  0.60413098  0.21486962  0.68168271     0.44200
Cu753      Cu  0.61150224  0.23327501  0.69563807     0.42000
Cu754      Cu  0.58951603  0.22203407  0.70049050     0.43900
N755        N  0.59155146  0.20906300  0.68470633    -0.34400
N756        N  0.58602396  0.21176822  0.69133923    -0.28700
C757        C  0.57806176  0.20711930  0.69073535    -0.04800
C758        C  0.57866691  0.20115086  0.68340644     0.07500
C759        C  0.58731734  0.20262381  0.67976977     0.01300
H760        H  0.57211957  0.20838374  0.69499065     0.08900
H761        H  0.59019667  0.19951915  0.67371145     0.08000
N762        N  0.59550076  0.23185093  0.70882898    -0.35800
N763        N  0.60348493  0.23579683  0.70707287    -0.28000
C764        C  0.60556795  0.24151131  0.71392793    -0.03300
C765        C  0.59861514  0.24112074  0.72035760     0.05300
C766        C  0.59228484  0.23501272  0.71685031     0.03400
H767        H  0.61166922  0.24571482  0.71414990     0.08500
H768        H  0.58588476  0.23291627  0.71996715     0.07400
N769        N  0.68676707  0.23335100  0.61353402    -0.27000
N770        N  0.67971852  0.22953150  0.60936742    -0.34900
C771        C  0.67235783  0.22978123  0.61487808     0.01300
C772        C  0.67482520  0.23408212  0.62290605     0.07400
C773        C  0.68407250  0.23614444  0.62188391    -0.05700
H774        H  0.66574729  0.22685293  0.61321992     0.08000
H775        H  0.68847963  0.23946502  0.62680451     0.09200
Cu776      Cu  0.68045020  0.22415877  0.59639597     0.44200
Cu777      Cu  0.69939384  0.23467545  0.60710393     0.42000
Cu778      Cu  0.70113849  0.22643718  0.58308116     0.43900
N779        N  0.68189352  0.21891058  0.58342897    -0.34400
N780        N  0.68944435  0.21943677  0.57844625    -0.28700
C781        C  0.68796163  0.21501922  0.57048616    -0.04800
C782        C  0.67897792  0.21168677  0.57045153     0.07500
C783        C  0.67544179  0.21429878  0.57882668     0.01300
H784        H  0.69312638  0.21413562  0.56525654     0.08900
H785        H  0.66861230  0.21296620  0.58142891     0.08000
N786        N  0.71110442  0.23430173  0.58984361    -0.35800
N787        N  0.71050258  0.23688165  0.59849711    -0.28000
C788        C  0.71796147  0.24180523  0.60069124    -0.03300
C789        C  0.72349124  0.24254147  0.59307068     0.05300
C790        C  0.71897407  0.23767294  0.58631044     0.03400
H791        H  0.71915206  0.24484879  0.60731154     0.08500
H792        H  0.72125303  0.23663209  0.57935860     0.07400
N793        N  0.61839200  0.29116087  0.81246142    -0.27000
N794        N  0.61654908  0.29868975  0.81704880    -0.34900
C795        C  0.62287415  0.29978655  0.82361854     0.01300
C796        C  0.62897162  0.29256181  0.82321569     0.07400
C797        C  0.62596517  0.28723824  0.81600515    -0.05700
H798        H  0.62294214  0.30536141  0.82844466     0.08000
H799        H  0.62909319  0.28105971  0.81343757     0.09200
Cu800      Cu  0.60522085  0.30683582  0.81455765     0.44200
Cu801      Cu  0.61041672  0.28685471  0.80159955     0.42000
Cu802      Cu  0.58969466  0.30013058  0.79647362     0.43900
N803        N  0.59242087  0.31264339  0.81258860    -0.34400
N804        N  0.58656838  0.31005009  0.80620553    -0.28700
C805        C  0.57856769  0.31450222  0.80747519    -0.04800
C806        C  0.57939935  0.32009535  0.81508223     0.07500
C807        C  0.58836034  0.31883607  0.81801033     0.01300
H808        H  0.57248697  0.31350981  0.80334953     0.08900
H809        H  0.59172566  0.32209093  0.82371636     0.08000
N810        N  0.59468315  0.28955777  0.78831945    -0.35800
N811        N  0.60201657  0.28464331  0.79041934    -0.28000
C812        C  0.60338906  0.27834566  0.78391283    -0.03300
C813        C  0.59671026  0.27938771  0.77730376     0.05300
C814        C  0.59125818  0.28653175  0.78032501     0.03400
H815        H  0.60899097  0.27349145  0.78388541     0.08500
H816        H  0.58522862  0.28928734  0.77700139     0.07400
N817        N  0.68841253  0.29154773  0.88177724    -0.27000
N818        N  0.68315991  0.29836269  0.88448861    -0.34900
C819        C  0.67635553  0.29959095  0.87843314     0.01300
C820        C  0.67738918  0.29327637  0.87149746     0.07400
C821        C  0.68509946  0.28824193  0.87386406    -0.05700
H822        H  0.67090451  0.30455991  0.87915872     0.08000
H823        H  0.68785066  0.28236361  0.87034517     0.09200
Cu824      Cu  0.68500049  0.30501441  0.89673258     0.44200
Cu825      Cu  0.69936395  0.28697670  0.88955591     0.42000
Cu826      Cu  0.70188459  0.29665231  0.91276136     0.43900
N827        N  0.68643251  0.30992085  0.90982689    -0.34400
N828        N  0.69230429  0.30673670  0.91592020    -0.28700
C829        C  0.69078539  0.31098641  0.92394217    -0.04800
C830        C  0.68368011  0.31722830  0.92276289     0.07500
C831        C  0.68111524  0.31628384  0.91372083     0.01300
H832        H  0.69434368  0.30935263  0.93021223     0.08900
H833        H  0.67561860  0.31982191  0.91023238     0.08000
N834        N  0.71085027  0.28724395  0.90687802    -0.35800
N835        N  0.70994369  0.28393229  0.89851765    -0.28000
C836        C  0.71705525  0.27837889  0.89671282    -0.03300
C837        C  0.72266701  0.27806319  0.90430290     0.05300
C838        C  0.71856960  0.28380286  0.91061288     0.03400
H839        H  0.71806521  0.27482052  0.89032252     0.08500
H840        H  0.72111282  0.28552529  0.91732703     0.07400
N841        N  0.81968060  0.28897948  0.61496255    -0.27000
N842        N  0.82615664  0.29406780  0.61122688    -0.34900
C843        C  0.83277231  0.29563139  0.61741812     0.01300
C844        C  0.83037382  0.29127973  0.62545485     0.07400
C845        C  0.82197844  0.28720567  0.62368556    -0.05700
H846        H  0.83868688  0.29994331  0.61625808     0.08000
H847        H  0.81778840  0.28336559  0.62842514     0.09200
Cu848      Cu  0.82535734  0.29916554  0.59811653     0.44200
Cu849      Cu  0.80794804  0.28508505  0.60795055     0.42000
Cu850      Cu  0.80559141  0.29300914  0.58434816     0.43900
N851        N  0.82319782  0.30382920  0.58499361    -0.34400
N852        N  0.81606565  0.30161356  0.57987351    -0.28700
C853        C  0.81689851  0.30578875  0.57171561    -0.04800
C854        C  0.82489785  0.31094249  0.57177051     0.07500
C855        C  0.82872170  0.30944919  0.58028093     0.01300
H856        H  0.81213905  0.30494639  0.56611266     0.08900
H857        H  0.83507424  0.31225410  0.58287973     0.08000
N858        N  0.79603369  0.28474627  0.59098860    -0.35800
N859        N  0.79689559  0.28200721  0.59955848    -0.28000
C860        C  0.78949300  0.27704048  0.60187782    -0.03300
C861        C  0.78362581  0.27667565  0.59445878     0.05300
C862        C  0.78804752  0.28153535  0.58763183     0.03400
H863        H  0.78849992  0.27387685  0.60847720     0.08500
H864        H  0.78556018  0.28278793  0.58078765     0.07400
N865        N  0.88012450  0.30030967  0.69040907    -0.27000
N866        N  0.88246006  0.30735912  0.68531088    -0.34900
C867        C  0.87580967  0.30888506  0.67912950     0.01300
C868        C  0.86891190  0.30249975  0.68042562     0.07400
C869        C  0.87193466  0.29713446  0.68761192    -0.05700
H870        H  0.87633723  0.31376593  0.67361513     0.08000
H871        H  0.86868752  0.29104877  0.69025436     0.09200
Cu872      Cu  0.89529749  0.31338764  0.68603749     0.44200
Cu873      Cu  0.88884375  0.29471263  0.70001843     0.42000
Cu874      Cu  0.91252670  0.30286401  0.70092461     0.43900
N875        N  0.90900489  0.31716051  0.68638417    -0.34400
N876        N  0.91535326  0.31335681  0.69162063    -0.28700
C877        C  0.92355926  0.31715001  0.68961969    -0.04800
C878        C  0.92229296  0.32351610  0.68271746     0.07500
C879        C  0.91297262  0.32339188  0.68093344     0.01300
H880        H  0.93000842  0.31521821  0.69274191     0.08900
H881        H  0.90933542  0.32743131  0.67592062     0.08000
N882        N  0.90717241  0.29281080  0.70959051    -0.35800
N883        N  0.89855917  0.28997126  0.70914153    -0.28000
C884        C  0.89705353  0.28378548  0.71573015    -0.03300
C885        C  0.90510726  0.28251481  0.72056432     0.05300
C886        C  0.91136744  0.28844485  0.71655304     0.03400
H887        H  0.89044382  0.28069891  0.71709637     0.08500
H888        H  0.91840853  0.28957848  0.71861841     0.07400
N889        N  0.81560589  0.22639094  0.88420316    -0.27000
N890        N  0.82200785  0.22102190  0.88766595    -0.34900
C891        C  0.82884955  0.22014663  0.88152814     0.01300
C892        C  0.82653376  0.22510478  0.87379539     0.07400
C893        C  0.81812678  0.22902534  0.87577513    -0.05700
H894        H  0.83503438  0.21618948  0.88259674     0.08000
H895        H  0.81422771  0.23363896  0.87150584     0.09200
Cu896      Cu  0.82080864  0.21524160  0.90059240     0.44200
Cu897      Cu  0.80395385  0.23016222  0.89128536     0.42000
Cu898      Cu  0.80038709  0.22127883  0.91413278     0.43900
N899        N  0.81772242  0.20990726  0.91340462    -0.34400
N900        N  0.81035155  0.21197341  0.91828096    -0.28700
C901        C  0.81041917  0.20700746  0.92602595    -0.04800
C902        C  0.81826593  0.20162772  0.92608564     0.07500
C903        C  0.82266142  0.20362372  0.91793243     0.01300
H904        H  0.80498723  0.20711534  0.93106660     0.08900
H905        H  0.82898923  0.20066416  0.91542451     0.08000
N906        N  0.79162114  0.23057655  0.90785686    -0.35800
N907        N  0.79294577  0.23363430  0.89946142    -0.28000
C908        C  0.78606117  0.23928896  0.89719623    -0.03300
C909        C  0.78005831  0.23979831  0.90448165     0.05300
C910        C  0.78383556  0.23428628  0.91118582     0.03400
H911        H  0.78550656  0.24280934  0.89072766     0.08500
H912        H  0.78105017  0.23294664  0.91790238     0.07400
N913        N  0.88360094  0.23362609  0.81382016    -0.27000
N914        N  0.88726374  0.22866028  0.82040465    -0.34900
C915        C  0.88083789  0.22692285  0.82673979     0.01300
C916        C  0.87270756  0.23104443  0.82409937     0.07400
C917        C  0.87469648  0.23523456  0.81583049    -0.05700
H918        H  0.88199073  0.22290507  0.83282981     0.08000
H919        H  0.86999145  0.23893309  0.81147119     0.09200
Cu920      Cu  0.90070368  0.22407370  0.82033498     0.44200
Cu921      Cu  0.89109522  0.23733802  0.80234167     0.42000
Cu922      Cu  0.91460511  0.22798775  0.80026974     0.43900
N923        N  0.91389150  0.21903181  0.81881195    -0.34400
N924        N  0.91897858  0.22019603  0.81142446    -0.28700
C925        C  0.92697991  0.21568963  0.81255552    -0.04800
C926        C  0.92697237  0.21160676  0.82113698     0.07500
C927        C  0.91850323  0.21385060  0.82483237     0.01300
H928        H  0.93228528  0.21525497  0.80740080     0.08900
H929        H  0.91585250  0.21184617  0.83143596     0.08000
N930        N  0.90833117  0.23645669  0.79059640    -0.35800
N931        N  0.89988583  0.23971107  0.79141797    -0.28000
C932        C  0.89798458  0.24498926  0.78416416    -0.03300
C933        C  0.90554516  0.24512238  0.77841287     0.05300
C934        C  0.91201739  0.23967437  0.78277818     0.03400
H935        H  0.89153964  0.24854293  0.78319368     0.08500
H936        H  0.91900707  0.23838945  0.78063757     0.07400
N937        N  0.68762653  0.63174571  0.21656775    -0.27000
N938        N  0.68188164  0.62908380  0.21012883    -0.34900
C939        C  0.67570091  0.63568767  0.20859028     0.01300
C940        C  0.67765900  0.64293205  0.21428495     0.07400
C941        C  0.68520226  0.64015696  0.21935786    -0.05700
H942        H  0.66996647  0.63508278  0.20393670     0.08000
H943        H  0.68858244  0.64390752  0.22475028     0.09200
Cu944      Cu  0.68228794  0.61644367  0.20405732     0.44200
Cu945      Cu  0.69824204  0.62349481  0.22113902     0.42000
Cu946      Cu  0.70038849  0.60091755  0.21027644     0.43900
N947        N  0.68359908  0.60360195  0.19855941    -0.34400
N948        N  0.69030252  0.59788601  0.20064319    -0.28700
C949        C  0.68929947  0.59027148  0.19561392    -0.04800
C950        C  0.68150968  0.59123368  0.19024865     0.07500
C951        C  0.67812349  0.59979474  0.19225092     0.01300
H952        H  0.69387449  0.58446009  0.19585513     0.08900
H953        H  0.67224375  0.60312072  0.18919529     0.08000
N954        N  0.70936413  0.60600712  0.22012852    -0.35800
N955        N  0.70852395  0.61411879  0.22398550    -0.28000
C956        C  0.71551920  0.61537837  0.22982647    -0.03300
C957        C  0.72112157  0.60775991  0.22962556     0.05300
C958        C  0.71693785  0.60190263  0.22346692     0.03400
H959        H  0.71655638  0.62150633  0.23380142     0.08500
H960        H  0.71916674  0.59513529  0.22157734     0.07400
N961        N  0.61655072  0.69880941  0.21689042    -0.27000
N962        N  0.61266467  0.69149296  0.21335496    -0.34900
C963        C  0.61850994  0.68443988  0.21396297     0.01300
C964        C  0.62646817  0.68744470  0.21813447     0.07400
C965        C  0.62504697  0.69662662  0.21980374    -0.05700
H966        H  0.61718605  0.67771076  0.21126744     0.08000
H967        H  0.62981843  0.70135303  0.22289114     0.09200
Cu968      Cu  0.59988056  0.69165802  0.20730814     0.44200
Cu969      Cu  0.60969494  0.71114650  0.21782003     0.42000
Cu970      Cu  0.58579461  0.71190978  0.20995036     0.43900
N971        N  0.58775601  0.69377946  0.20034996    -0.34400
N972        N  0.58256810  0.70113850  0.20115232    -0.28700
C973        C  0.57550545  0.70046681  0.19523544    -0.04800
C974        C  0.57638782  0.69234079  0.19044408     0.07500
C975        C  0.58417649  0.68826550  0.19396730     0.01300
H976        H  0.57013106  0.70551141  0.19450629     0.08900
H977        H  0.58717097  0.68184777  0.19187933     0.08000
N978        N  0.59183561  0.72180506  0.21831071    -0.35800
N979        N  0.60060903  0.72164764  0.22065029    -0.28000
C980        C  0.60241461  0.72881265  0.22604111    -0.03300
C981        C  0.59442243  0.73380414  0.22728735     0.05300
C982        C  0.58781794  0.72907628  0.22230397     0.03400
H983        H  0.60906786  0.73012920  0.22905590     0.08500
H984        H  0.58055097  0.73052111  0.22191262     0.07400
N985        N  0.81578775  0.62633044  0.27971331    -0.27000
N986        N  0.82164079  0.62259456  0.28549780    -0.34900
C987        C  0.82902249  0.62800802  0.28633106     0.01300
C988        C  0.82780555  0.63550956  0.28073979     0.07400
C989        C  0.81927509  0.63429389  0.27672600    -0.05700
H990        H  0.83479604  0.62662287  0.29077103     0.08000
H991        H  0.81592354  0.63878751  0.27190604     0.09200
Cu992      Cu  0.81939376  0.61022365  0.29180501     0.44200
Cu993      Cu  0.80367553  0.61991723  0.27600080     0.42000
Cu994      Cu  0.80043399  0.59630060  0.28413466     0.43900
N995        N  0.81662931  0.59740704  0.29690104    -0.34400
N996        N  0.80985296  0.59212333  0.29408142    -0.28700
C997        C  0.81030321  0.58414067  0.29864476    -0.04800
C998        C  0.81767185  0.58449979  0.30468165     0.07500
C999        C  0.82151952  0.59300359  0.30329396     0.01300
H1000       H  0.80576016  0.57843775  0.29745498     0.08900
H1001       H  0.82750962  0.59579074  0.30665088     0.08000
N1002       N  0.79182628  0.60293539  0.27481245    -0.35800
N1003       N  0.79290971  0.61150014  0.27218853    -0.28000
C1004       C  0.78607673  0.61378471  0.26646416    -0.03300
C1005       C  0.78046353  0.60627564  0.26520334     0.05300
C1006       C  0.78427386  0.59955136  0.27071652     0.03400
H1007       H  0.78518036  0.62053454  0.26363883     0.08500
H1008       H  0.78172646  0.59269862  0.27170515     0.07400
N1009       N  0.88343930  0.69783290  0.28056513    -0.27000
N1010       N  0.88707950  0.69214156  0.28652503    -0.34900
C1011       C  0.88140694  0.68504529  0.28776277     0.01300
C1012       C  0.87381678  0.68623540  0.28221493     0.07400
C1013       C  0.87529384  0.69447616  0.27777642    -0.05700
H1014       H  0.88284591  0.67928926  0.29215855     0.08000
H1015       H  0.87082727  0.69777357  0.27288395     0.09200
Cu1016     Cu  0.89995350  0.69399723  0.29193802     0.44200
Cu1017     Cu  0.89046091  0.70945523  0.27647553     0.42000
Cu1018     Cu  0.91512975  0.71149081  0.28287805     0.43900
N1019       N  0.91338878  0.69562215  0.29588870    -0.34400
N1020       N  0.91916928  0.70175082  0.29258990    -0.28700
C1021       C  0.92732354  0.70073360  0.29688295    -0.04800
C1022       C  0.92652077  0.69363875  0.30313736     0.07500
C1023       C  0.91759571  0.69063241  0.30231124     0.01300
H1024       H  0.93324889  0.70504757  0.29580144     0.08900
H1025       H  0.91433033  0.68526435  0.30620088     0.08000
N1026       N  0.90812707  0.72042205  0.27408079    -0.35800
N1027       N  0.89924087  0.71979260  0.27225033    -0.28000
C1028       C  0.89680888  0.72661320  0.26663797    -0.03300
C1029       C  0.90452593  0.73169549  0.26448867     0.05300
C1030       C  0.91156272  0.72765015  0.26949641     0.03400
H1031       H  0.88983569  0.72778381  0.26439307     0.08500
H1032       H  0.91868367  0.72974522  0.26971171     0.07400
N1033       N  0.61706592  0.82396167  0.28047746    -0.27000
N1034       N  0.61475427  0.82886974  0.28766944    -0.34900
C1035       C  0.62026419  0.83616533  0.28823714     0.01300
C1036       C  0.62646247  0.83580861  0.28111272     0.07400
C1037       C  0.62425967  0.82797849  0.27628911    -0.05700
H1038       H  0.61966429  0.84145572  0.29334545     0.08000
H1039       H  0.62740042  0.82558717  0.27003626     0.09200
Cu1040     Cu  0.60361103  0.82598328  0.29575196     0.44200
Cu1041     Cu  0.60946829  0.81257620  0.27670553     0.42000
Cu1042     Cu  0.58758723  0.80843131  0.28915867     0.43900
N1043       N  0.59088022  0.82446027  0.30156483    -0.34400
N1044       N  0.58472375  0.81833929  0.29905471    -0.28700
C1045       C  0.57680641  0.82007937  0.30353879    -0.04800
C1046       C  0.57818220  0.82755891  0.30919299     0.07500
C1047       C  0.58714954  0.83017047  0.30767082     0.01300
H1048       H  0.57047994  0.81632579  0.30261655     0.08900
H1049       H  0.59058414  0.83609698  0.31041139     0.08000
N1050       N  0.59287651  0.80003602  0.27883636    -0.35800
N1051       N  0.60063843  0.80166962  0.27439163    -0.28000
C1052       C  0.60195096  0.79512026  0.26811690    -0.03300
C1053       C  0.59477520  0.78896757  0.26863440     0.05300
C1054       C  0.58910686  0.79233380  0.27548210     0.03400
H1055       H  0.60777074  0.79483146  0.26351862     0.08500
H1056       H  0.58262256  0.78952036  0.27773042     0.07400
N1057       N  0.68252045  0.89720551  0.28026051    -0.27000
N1058       N  0.67753637  0.89938913  0.28747293    -0.34900
C1059       C  0.67061060  0.89340724  0.28832265     0.01300
C1060       C  0.67119122  0.88723528  0.28121624     0.07400
C1061       C  0.67885901  0.88980637  0.27625163    -0.05700
H1062       H  0.66552915  0.89353422  0.29371995     0.08000
H1063       H  0.68171489  0.88641829  0.27033529     0.09200
Cu1064     Cu  0.68041136  0.91043808  0.29571737     0.44200
Cu1065     Cu  0.69423722  0.90427177  0.27667617     0.42000
Cu1066     Cu  0.69990181  0.92473710  0.28975316     0.43900
N1067       N  0.68410751  0.92203856  0.30279795    -0.34400
N1068       N  0.69121205  0.92724659  0.30071360    -0.28700
C1069       C  0.69144318  0.93434155  0.30651526    -0.04800
C1070       C  0.68414455  0.93354459  0.31256495     0.07500
C1071       C  0.67959366  0.92570819  0.30990071     0.01300
H1072       H  0.69642907  0.93979960  0.30620520     0.08900
H1073       H  0.67320237  0.92307765  0.31258625     0.08000
N1074       N  0.70773311  0.91975469  0.27901106    -0.35800
N1075       N  0.70578392  0.91216109  0.27458138    -0.28000
C1076       C  0.71253671  0.91037180  0.26861892    -0.03300
C1077       C  0.71912030  0.91715226  0.26925129     0.05300
C1078       C  0.71573407  0.92308772  0.27583159     0.03400
H1079       H  0.71270222  0.90441754  0.26427080     0.08500
H1080       H  0.71874369  0.92939190  0.27814682     0.07400
N1081       N  0.88039113  0.82501360  0.21560886    -0.27000
N1082       N  0.88301933  0.83021898  0.20873912    -0.34900
C1083       C  0.87644469  0.83638102  0.20699754     0.01300
C1084       C  0.86927444  0.83500033  0.21306189     0.07400
C1085       C  0.87206325  0.82776872  0.21849778    -0.05700
H1086       H  0.87692295  0.84158216  0.20177781     0.08000
H1087       H  0.86850070  0.82489512  0.22430096     0.09200
Cu1088     Cu  0.89569256  0.82916537  0.20257583     0.44200
Cu1089     Cu  0.88842529  0.81447526  0.22047980     0.42000
Cu1090     Cu  0.91102321  0.81106121  0.20978360     0.43900
N1091       N  0.90909556  0.82801814  0.19820162    -0.34400
N1092       N  0.91477748  0.82142068  0.20062555    -0.28700
C1093       C  0.92299749  0.82295701  0.19664354    -0.04800
C1094       C  0.92249749  0.83103388  0.19164842     0.07500
C1095       C  0.91351552  0.83394092  0.19277249     0.01300
H1096       H  0.92883167  0.81845148  0.19730451     0.08900
H1097       H  0.91043150  0.84006088  0.19001885     0.08000
N1098       N  0.90521678  0.80229901  0.21954770    -0.35800
N1099       N  0.89709442  0.80369192  0.22337454    -0.28000
C1100       C  0.89522265  0.79682749  0.22915721    -0.03300
C1101       C  0.90254209  0.79081514  0.22913496     0.05300
C1102       C  0.90871730  0.79445391  0.22287293     0.03400
H1103       H  0.88882751  0.79613941  0.23286463     0.08500
H1104       H  0.91525616  0.79157851  0.22085606     0.07400
N1105       N  0.80936206  0.89216215  0.21557695    -0.27000
N1106       N  0.81518546  0.89510303  0.20932832    -0.34900
C1107       C  0.82138038  0.88853696  0.20764987     0.01300
C1108       C  0.81938412  0.88115038  0.21319268     0.07400
C1109       C  0.81167112  0.88365644  0.21809510    -0.05700
H1110       H  0.82706316  0.88917707  0.20292582     0.08000
H1111       H  0.80800128  0.87964507  0.22310591     0.09200
Cu1112     Cu  0.81461155  0.90810112  0.20390113     0.44200
Cu1113     Cu  0.79891727  0.90013092  0.22049327     0.42000
Cu1114     Cu  0.79763739  0.92394561  0.21310663     0.43900
N1115       N  0.81352563  0.92161199  0.20001808    -0.34400
N1116       N  0.80753164  0.92749722  0.20339864    -0.28700
C1117       C  0.80892791  0.93567648  0.19942435    -0.04800
C1118       C  0.81614880  0.93485195  0.19328183     0.07500
C1119       C  0.81881994  0.92583461  0.19381126     0.01300
H1120       H  0.80485844  0.94170439  0.20075846     0.08900
H1121       H  0.82426197  0.92257237  0.18997765     0.08000
N1122       N  0.78879001  0.91794700  0.22259828    -0.35800
N1123       N  0.78936161  0.90930363  0.22509535    -0.28000
C1124       C  0.78269199  0.90740492  0.23110923    -0.03300
C1125       C  0.77769497  0.91524156  0.23264889     0.05300
C1126       C  0.78166182  0.92178458  0.22704014     0.03400
H1127       H  0.78143278  0.90069768  0.23391057     0.08500
H1128       H  0.77949006  0.92878747  0.22620745     0.07400
N1129       N  0.28510500  0.62907320  0.80740275    -0.27000
N1130       N  0.29199395  0.62636935  0.81262615    -0.34900
C1131       C  0.29286671  0.63214027  0.81967538     0.01300
C1132       C  0.28630517  0.63890103  0.81882571     0.07400
C1133       C  0.28144937  0.63672666  0.81097995    -0.05700
H1134       H  0.29798085  0.63151114  0.82499758     0.08000
H1135       H  0.27563210  0.64034836  0.80814760     0.09200
Cu1136     Cu  0.30007628  0.61505136  0.81004166     0.44200
Cu1137     Cu  0.28122575  0.62208170  0.79568356     0.42000
Cu1138     Cu  0.29451605  0.60134324  0.79059806     0.43900
N1139       N  0.30703873  0.60317517  0.80683064    -0.34400
N1140       N  0.30482596  0.59793043  0.79984174    -0.28700
C1141       C  0.30994024  0.59028344  0.80017831    -0.04800
C1142       C  0.31575378  0.59082925  0.80765567     0.07500
C1143       C  0.31367824  0.59908059  0.81173245     0.01300
H1144       H  0.30924742  0.58460195  0.79553065     0.08900
H1145       H  0.31635705  0.60164187  0.81811891     0.08000
N1146       N  0.28428783  0.60667021  0.78220412    -0.35800
N1147       N  0.27952219  0.61413122  0.78405839    -0.28000
C1148       C  0.27370083  0.61579916  0.77712767    -0.03300
C1149       C  0.27491501  0.60915350  0.77052738     0.05300
C1150       C  0.28159115  0.60340847  0.77404213     0.03400
H1151       H  0.26888164  0.62141301  0.77696199     0.08500
H1152       H  0.28438887  0.59737487  0.77083599     0.07400
N1153       N  0.28580823  0.69767477  0.87779195    -0.27000
N1154       N  0.29257507  0.69227673  0.88042050    -0.34900
C1155       C  0.29373073  0.68564471  0.87421132     0.01300
C1156       C  0.28731043  0.68684061  0.86736022     0.07400
C1157       C  0.28241944  0.69457864  0.86981527    -0.05700
H1158       H  0.29873666  0.68021463  0.87475457     0.08000
H1159       H  0.27683360  0.69772722  0.86609435     0.09200
Cu1160     Cu  0.29953758  0.69390707  0.89258614     0.44200
Cu1161     Cu  0.28161699  0.70877498  0.88556304     0.42000
Cu1162     Cu  0.29257305  0.71193477  0.90807408     0.43900
N1163       N  0.30513755  0.69573578  0.90540488    -0.34400
N1164       N  0.30263497  0.70216559  0.91121811    -0.28700
C1165       C  0.30721412  0.70086326  0.91913055    -0.04800
C1166       C  0.31289202  0.69327954  0.91819461     0.07500
C1167       C  0.31131751  0.69023405  0.90939965     0.01300
H1168       H  0.30612256  0.70485539  0.92524031     0.08900
H1169       H  0.31424490  0.68425314  0.90620166     0.08000
N1170       N  0.28222581  0.72039678  0.90276651    -0.35800
N1171       N  0.27837784  0.71916506  0.89466980    -0.28000
C1172       C  0.27201796  0.72567048  0.89329437    -0.03300
C1173       C  0.27168387  0.73125578  0.90090019     0.05300
C1174       C  0.27835940  0.72777476  0.90672270     0.03400
H1175       H  0.26804496  0.72636639  0.88709219     0.08500
H1176       H  0.28022269  0.73038293  0.91337153     0.07400
N1177       N  0.21497334  0.89215072  0.80971471    -0.27000
N1178       N  0.20935006  0.89548768  0.81595453    -0.34900
C1179       C  0.20941132  0.89006362  0.82331827     0.01300
C1180       C  0.21540530  0.88293911  0.82171228     0.07400
C1181       C  0.21877277  0.88442872  0.81296773    -0.05700
H1182       H  0.20535553  0.89122536  0.82940154     0.08000
H1183       H  0.22344720  0.88013652  0.80915807     0.09200
Cu1184     Cu  0.20159624  0.90706100  0.81427055     0.44200
Cu1185     Cu  0.21693748  0.89844242  0.79715272     0.42000
Cu1186     Cu  0.20391866  0.91979728  0.79358278     0.43900
N1187       N  0.19422250  0.91871769  0.81170706    -0.34400
N1188       N  0.19513928  0.92366639  0.80422072    -0.28700
C1189       C  0.18978588  0.93113333  0.80500901    -0.04800
C1190       C  0.18519861  0.93070099  0.81331972     0.07500
C1191       C  0.18824481  0.92277172  0.81738618     0.01300
H1192       H  0.18936694  0.93653486  0.79999569     0.08900
H1193       H  0.18655885  0.92031992  0.82414835     0.08000
N1194       N  0.21300696  0.91405115  0.78410755    -0.35800
N1195       N  0.21760129  0.90636219  0.78539199    -0.28000
C1196       C  0.22293870  0.90475801  0.77805589    -0.03300
C1197       C  0.22162669  0.91171333  0.77178986     0.05300
C1198       C  0.21535111  0.91752114  0.77591121     0.03400
H1199       H  0.22769930  0.89911984  0.77750542     0.08500
H1200       H  0.21277092  0.92388360  0.77319423     0.07400
N1201       N  0.21993226  0.82335741  0.87931947    -0.27000
N1202       N  0.21374575  0.82904344  0.88265088    -0.34900
C1203       C  0.21316762  0.83639672  0.87725408     0.01300
C1204       C  0.21939738  0.83541910  0.87021200     0.07400
C1205       C  0.22347422  0.82698126  0.87161333    -0.05700
H1206       H  0.20862293  0.84210415  0.87847361     0.08000
H1207       H  0.22881609  0.82386898  0.86752655     0.09200
Cu1208     Cu  0.20714028  0.82728411  0.89492518     0.44200
Cu1209     Cu  0.22349946  0.81145553  0.88619451     0.42000
Cu1210     Cu  0.21516666  0.80994399  0.91013784     0.43900
N1211       N  0.20287709  0.82633570  0.90827045    -0.34400
N1212       N  0.20598718  0.82022004  0.91412107    -0.28700
C1213       C  0.20226545  0.82195218  0.92238521    -0.04800
C1214       C  0.19643563  0.82945993  0.92161908     0.07500
C1215       C  0.19710857  0.83204221  0.91255436     0.01300
H1216       H  0.20392925  0.81818477  0.92850957     0.08900
H1217       H  0.19370834  0.83773338  0.90928700     0.08000
N1218       N  0.22361975  0.80027608  0.90374120    -0.35800
N1219       N  0.22638015  0.80078231  0.89513625    -0.28000
C1220       C  0.23175132  0.79355946  0.89326951    -0.03300
C1221       C  0.23246458  0.78817034  0.90101943     0.05300
C1222       C  0.22724605  0.79270837  0.90754665     0.03400
H1223       H  0.23504253  0.79240217  0.88674408     0.08500
H1224       H  0.22641843  0.79087559  0.91464332     0.07400
N1225       N  0.28105091  0.82671837  0.61315511    -0.27000
N1226       N  0.28818644  0.83192764  0.61124013    -0.34900
C1227       C  0.28795520  0.83937648  0.61653410     0.01300
C1228       C  0.28028325  0.83884304  0.62207114     0.07400
C1229       C  0.27610947  0.83066064  0.61985752    -0.05700
H1230       H  0.29306242  0.84472918  0.61643106     0.08000
H1231       H  0.26990728  0.82785176  0.62280395     0.09200
Cu1232     Cu  0.29769570  0.82876807  0.60132494     0.44200
Cu1233     Cu  0.27854593  0.81482643  0.60600548     0.42000
Cu1234     Cu  0.29345328  0.81003773  0.58598276     0.43900
N1235       N  0.30530877  0.82638548  0.58972853    -0.34400
N1236       N  0.30364532  0.81983178  0.58377592    -0.28700
C1237       C  0.30873472  0.82138561  0.57622279    -0.04800
C1238       C  0.31383002  0.82928931  0.57755875     0.07500
C1239       C  0.31146804  0.83219723  0.58621672     0.01300
H1240       H  0.30814803  0.81752638  0.56996121     0.08900
H1241       H  0.31348056  0.83851570  0.58943951     0.08000
N1242       N  0.28262366  0.80175916  0.59038478    -0.35800
N1243       N  0.27733901  0.80361544  0.59751410    -0.28000
C1244       C  0.27098195  0.79705544  0.59840667    -0.03300
C1245       C  0.27231926  0.79067713  0.59160784     0.05300
C1246       C  0.27973847  0.79388797  0.58660083     0.03400
H1247       H  0.26577460  0.79691351  0.60368473     0.08500
H1248       H  0.28271811  0.79083774  0.58056692     0.07400
N1249       N  0.27291684  0.89763913  0.68011417    -0.27000
N1250       N  0.27835577  0.90120345  0.67386215    -0.34900
C1251       C  0.28005374  0.89499998  0.66737475     0.01300
C1252       C  0.27538735  0.88710399  0.66958530     0.07400
C1253       C  0.27096182  0.88898054  0.67777060    -0.05700
H1254       H  0.28424790  0.89621013  0.66139171     0.08000
H1255       H  0.26669452  0.88442632  0.68174299     0.09200
Cu1256     Cu  0.28300972  0.91435371  0.67447148     0.44200
Cu1257     Cu  0.26855804  0.90533175  0.69112453     0.42000
Cu1258     Cu  0.27523262  0.92988944  0.69206254     0.43900
N1259       N  0.28764572  0.92746527  0.67572853    -0.34400
N1260       N  0.28488323  0.93338473  0.68194718    -0.28700
C1261       C  0.28941160  0.94129914  0.68053273    -0.04800
C1262       C  0.29534593  0.94018085  0.67313466     0.07500
C1263       C  0.29394010  0.93132986  0.67029407     0.01300
H1264       H  0.28830575  0.94743378  0.68446814     0.08900
H1265       H  0.29726461  0.92789286  0.66465638     0.08000
N1266       N  0.26665691  0.92325720  0.70155220    -0.35800
N1267       N  0.26463753  0.91445718  0.70117459    -0.28000
C1268       C  0.25956688  0.91217223  0.70847606    -0.03300
C1269       C  0.25816456  0.91984203  0.71371850     0.05300
C1270       C  0.26276179  0.92678363  0.70915616     0.03400
H1271       H  0.25711013  0.90535914  0.70990002     0.08500
H1272       H  0.26347870  0.93378001  0.71135170     0.07400
N1273       N  0.22010548  0.62741035  0.68057003    -0.27000
N1274       N  0.21392175  0.62397007  0.67497533    -0.34900
C1275       C  0.21216959  0.62996060  0.66828801     0.01300
C1276       C  0.21737861  0.63768031  0.66981456     0.07400
C1277       C  0.22246134  0.63577961  0.67759954    -0.05700
H1278       H  0.20761908  0.62865630  0.66260745     0.08000
H1279       H  0.22748121  0.64013634  0.68084398     0.09200
Cu1280     Cu  0.20847149  0.61116692  0.67647517     0.44200
Cu1281     Cu  0.22485204  0.62003588  0.69166079     0.42000
Cu1282     Cu  0.21757675  0.59567673  0.69320298     0.43900
N1283       N  0.20473029  0.59771416  0.67723688    -0.34400
N1284       N  0.20814896  0.59175920  0.68309576    -0.28700
C1285       C  0.20474126  0.58344658  0.68104021    -0.04800
C1286       C  0.19905539  0.58429082  0.67344373     0.07500
C1287       C  0.19911281  0.59346564  0.67138045     0.01300
H1288       H  0.20647367  0.57722450  0.68461453     0.08900
H1289       H  0.19544139  0.59684590  0.66592748     0.08000
N1290       N  0.22641019  0.60229338  0.70239476    -0.35800
N1291       N  0.22867235  0.61103136  0.70188289    -0.28000
C1292       C  0.23413505  0.61316804  0.70894960    -0.03300
C1293       C  0.23553821  0.60543292  0.71410846     0.05300
C1294       C  0.23054104  0.59864732  0.70979805     0.03400
H1295       H  0.23700608  0.61985910  0.71016023     0.08500
H1296       H  0.22987992  0.59162097  0.71193565     0.07400
N1297       N  0.21903038  0.69900265  0.61365904    -0.27000
N1298       N  0.21347464  0.69312948  0.60964853    -0.34900
C1299       C  0.21266961  0.68567234  0.61490281     0.01300
C1300       C  0.21787602  0.68696215  0.62267158     0.07400
C1301       C  0.22186885  0.69546541  0.62165731    -0.05700
H1302       H  0.20847254  0.67981425  0.61326332     0.08000
H1303       H  0.22655508  0.69878746  0.62632005     0.09200
Cu1304     Cu  0.20694293  0.69570967  0.59745738     0.44200
Cu1305     Cu  0.22250190  0.71135937  0.60773170     0.42000
Cu1306     Cu  0.21158281  0.71672819  0.58563559     0.43900
N1307       N  0.20033278  0.69960551  0.58566389    -0.34400
N1308       N  0.20193975  0.70726363  0.58118738    -0.28700
C1309       C  0.19640547  0.70758960  0.57381160    -0.04800
C1310       C  0.19110865  0.69972659  0.57370854     0.07500
C1311       C  0.19375637  0.69489170  0.58135325     0.01300
H1312       H  0.19616697  0.71317715  0.56899565     0.08900
H1313       H  0.19113822  0.68836470  0.58359430     0.08000
N1314       N  0.22170274  0.72459079  0.59183833    -0.35800
N1315       N  0.22551693  0.72270291  0.59982433    -0.28000
C1316       C  0.23186689  0.72907451  0.60172176    -0.03300
C1317       C  0.23203964  0.73530646  0.59463189     0.05300
C1318       C  0.22557235  0.73220337  0.58844949     0.03400
H1319       H  0.23621516  0.72901031  0.60771265     0.08500
H1320       H  0.22381875  0.73524831  0.58195314     0.07400
C1321       C  0.00040113  0.94026319  0.06601452     0.80500
N1322       N  0.99362433  0.94664586  0.06566296    -0.77800
C1323       C  0.99371452  0.95321863  0.05910545     0.82900
N1324       N  0.00059526  0.95336985  0.05282962    -0.77700
C1325       C  0.00714881  0.94676470  0.05283049     0.83000
N1326       N  0.00715208  0.94037245  0.05957413    -0.79500
N1327       N  0.98597393  0.86295722  0.14999111    -0.27000
N1328       N  0.98143314  0.86945321  0.14566224    -0.34900
C1329       C  0.97245637  0.86882075  0.14794077     0.01300
C1330       C  0.97147105  0.86156969  0.15395867     0.07400
C1331       C  0.98015374  0.85805950  0.15511002    -0.05700
H1332       H  0.96712031  0.87337405  0.14556794     0.08000
H1333       H  0.98214368  0.85247251  0.15951156     0.09200
Cu1334     Cu  0.98829682  0.87884886  0.13732959     0.44200
Cu1335     Cu  0.99990956  0.86124234  0.14940804     0.42000
Cu1336     Cu  0.01401922  0.87668193  0.13726091     0.43900
N1337       N  0.99733172  0.88686268  0.12958936    -0.34400
N1338       N  0.00640866  0.88601198  0.12950458    -0.28700
C1339       C  0.00991742  0.89193238  0.12339279    -0.04800
C1340       C  0.00276192  0.89672076  0.11940566     0.07500
C1341       C  0.99490159  0.89339578  0.12357480     0.01300
H1342       H  0.01716269  0.89262157  0.12188907     0.08900
H1343       H  0.98788893  0.89536114  0.12210346     0.08000
N1344       N  0.01941952  0.86625106  0.14540537    -0.35800
N1345       N  0.01393704  0.86047128  0.14965744    -0.28000
C1346       C  0.01895179  0.85434324  0.15425984    -0.03300
C1347       C  0.02810674  0.85635224  0.15297537     0.05300
C1348       C  0.02820615  0.86394535  0.14728160     0.03400
H1349       H  0.01612004  0.84886320  0.15833062     0.08500
H1350       H  0.03418559  0.86741851  0.14460187     0.07400
C1351       C  0.07052102  0.94290303  0.99792831     0.80500
N1352       N  0.07020546  0.95005204  0.99200128    -0.77800
C1353       C  0.06301133  0.95598547  0.99202784     0.82900
N1354       N  0.05599955  0.95462522  0.99799957    -0.77700
C1355       C  0.05619059  0.94759305  0.00402259     0.83000
N1356       N  0.06354163  0.94184699  0.00406171    -0.79500
N1357       N  0.15478166  0.86264907  0.98492862    -0.27000
N1358       N  0.15028237  0.86865428  0.97990520    -0.34900
C1359       C  0.15309789  0.86776591  0.97114113     0.01300
C1360       C  0.15977714  0.86097121  0.97078185     0.07400
C1361       C  0.16049296  0.85781985  0.97963194    -0.05700
H1362       H  0.15066068  0.87188429  0.96551556     0.08000
H1363       H  0.16490543  0.85241468  0.98209925     0.09200
Cu1364     Cu  0.14084613  0.87771351  0.98589478     0.44200
Cu1365     Cu  0.15355714  0.86137373  0.99883658     0.42000
Cu1366     Cu  0.13832055  0.87542386  0.01132087     0.43900
N1367       N  0.13207654  0.88559817  0.99415904    -0.34400
N1368       N  0.13127124  0.88478905  0.00314697    -0.28700
C1369       C  0.12509999  0.89093469  0.00617452    -0.04800
C1370       C  0.12186150  0.89590786  0.99880753     0.07500
C1371       C  0.12636315  0.89225954  0.99129599     0.01300
H1372       H  0.12298325  0.89159167  0.01322269     0.08900
H1373       H  0.12555370  0.89432428  0.98425038     0.08000
N1374       N  0.14665572  0.86568277  0.01761462    -0.35800
N1375       N  0.15229916  0.86055580  0.01277590    -0.28000
C1376       C  0.15695377  0.85497416  0.01835552    -0.03300
C1377       C  0.15419892  0.85664178  0.02722525     0.05300
C1378       C  0.14758609  0.86346045  0.02651467     0.03400
H1379       H  0.16207383  0.85010875  0.01611054     0.08500
H1380       H  0.14368129  0.86650701  0.03201224     0.07400
C1381       C  0.92829124  0.00425067  0.06288623     0.80500
N1382       N  0.92797451  0.01059597  0.05608709    -0.77800
C1383       C  0.93509869  0.01160853  0.05015459     0.82900
N1384       N  0.94263548  0.00622349  0.05109444    -0.77700
C1385       C  0.94312886  0.99994502  0.05789299     0.83000
N1386       N  0.93595433  0.99902283  0.06376058    -0.79500
N1387       N  0.85185555  0.99531994  0.15019566    -0.27000
N1388       N  0.85506503  0.99001990  0.14364835    -0.34900
C1389       C  0.85252153  0.98134529  0.14541485     0.01300
C1390       C  0.84747580  0.98127592  0.15348418     0.07400
C1391       C  0.84721293  0.99026544  0.15626177    -0.05700
H1392       H  0.85389866  0.97562211  0.14096864     0.08000
H1393       H  0.84365740  0.99299211  0.16215190     0.09200
Cu1394     Cu  0.86232765  0.99547330  0.13265150     0.44200
Cu1395     Cu  0.85301323  0.00928651  0.15024489     0.42000
Cu1396     Cu  0.86435951  0.02100207  0.13227556     0.43900
N1397       N  0.87018859  0.00300949  0.12342230    -0.34400
N1398       N  0.87107027  0.01200488  0.12341312    -0.28700
C1399       C  0.87717884  0.01437531  0.11692194    -0.04800
C1400       C  0.88032519  0.00654024  0.11267443     0.07500
C1401       C  0.87565607  0.99948783  0.11689115     0.01300
H1402       H  0.87919116  0.02131011  0.11542309     0.08900
H1403       H  0.87639661  0.99228458  0.11550696     0.08000
N1404       N  0.85716765  0.02783641  0.14256543    -0.35800
N1405       N  0.85315152  0.02326595  0.14923247    -0.28000
C1406       C  0.84893707  0.02909996  0.15488627    -0.03300
C1407       C  0.85042697  0.03786434  0.15177863     0.05300
C1408       C  0.85556753  0.03682339  0.14383171     0.03400
H1409       H  0.84482509  0.02705869  0.16069385     0.08500
H1410       H  0.85792178  0.04217375  0.13931973     0.07400
C1411       C  0.93189379  0.07919970  0.00123210     0.80500
N1412       N  0.93893467  0.07984337  0.99518362    -0.77800
C1413       C  0.94533504  0.07312941  0.99445758     0.82900
N1414       N  0.94464323  0.06572375  0.00008579    -0.77700
C1415       C  0.93764785  0.06501738  0.00627672     0.83000
N1416       N  0.93115602  0.07166968  0.00655154    -0.79500
N1417       N  0.84472515  0.15337513  0.98697907    -0.27000
N1418       N  0.85189550  0.15044556  0.98229175    -0.34900
C1419       C  0.85069022  0.15269808  0.97343561     0.01300
C1420       C  0.84227479  0.15711340  0.97257664     0.07400
C1421       C  0.83876219  0.15744590  0.98132348    -0.05700
H1422       H  0.85572846  0.15160886  0.96811433     0.08000
H1423       H  0.83269983  0.16109482  0.98355461     0.09200
Cu1424     Cu  0.86309711  0.14431869  0.98875948     0.44200
Cu1425     Cu  0.84410473  0.15365092  0.00097619     0.42000
Cu1426     Cu  0.86305411  0.14570696  0.01414230     0.43900
N1427       N  0.87269799  0.13804586  0.99731711    -0.34400
N1428       N  0.87268727  0.13849199  0.00635313    -0.28700
C1429       C  0.87952479  0.13319406  0.00958770    -0.04800
C1430       C  0.88412554  0.12926872  0.00227500     0.07500
C1431       C  0.87952279  0.13246077  0.99462303     0.01300
H1432       H  0.88091485  0.13211606  0.01676043     0.08900
H1433       H  0.88073228  0.13051673  0.98760312     0.08000
N1434       N  0.85218290  0.15315429  0.01979122    -0.35800
N1435       N  0.84524770  0.15602478  0.01474749    -0.28000
C1436       C  0.83941022  0.16083978  0.01993866    -0.03300
C1437       C  0.84274755  0.16107349  0.02878125     0.05300
C1438       C  0.85084966  0.15601227  0.02844700     0.03400
H1439       H  0.83321696  0.16404500  0.01739618     0.08500
H1440       H  0.85536261  0.15435918  0.03406549     0.07400
C1441       C  0.99933144  0.08148793  0.93077284     0.80500
N1442       N  0.99379665  0.08217322  0.93824644    -0.77800
C1443       C  0.99448338  0.07599665  0.94517303     0.82900
N1444       N  0.00082392  0.06922927  0.94457645    -0.77700
C1445       C  0.00650696  0.06858854  0.93724038     0.83000
N1446       N  0.00560608  0.07465001  0.93028642    -0.79500
N1447       N  0.01705560  0.17165774  0.86212382    -0.27000
N1448       N  0.02141748  0.16418625  0.86468442    -0.34900
C1449       C  0.03027583  0.16481417  0.86209282     0.01300
C1450       C  0.03155072  0.17313633  0.85777121     0.07400
C1451       C  0.02299512  0.17725407  0.85790105    -0.05700
H1452       H  0.03525061  0.15937178  0.86273041     0.08000
H1453       H  0.02102024  0.18342945  0.85436600     0.09200
Cu1454     Cu  0.01460462  0.15304403  0.87022408     0.44200
Cu1455     Cu  0.00292544  0.17294946  0.86236728     0.42000
Cu1456     Cu  0.98961627  0.15262325  0.86650402     0.43900
N1457       N  0.00591777  0.14294691  0.87517735    -0.34400
N1458       N  0.99694985  0.14265798  0.87370096    -0.28700
C1459       C  0.99341757  0.13549585  0.87826769    -0.04800
C1460       C  0.00044891  0.13116429  0.88299499     0.07500
C1461       C  0.00828522  0.13602638  0.88073832     0.01300
H1462       H  0.98621093  0.13370557  0.87826427     0.08900
H1463       H  0.01516771  0.13485459  0.88327520     0.08000
N1464       N  0.98407558  0.16455305  0.86090946    -0.35800
N1465       N  0.98897864  0.17207238  0.85991019    -0.28000
C1466       C  0.98368935  0.17862632  0.85625478    -0.03300
C1467       C  0.97498697  0.17513904  0.85487677     0.05300
C1468       C  0.97548779  0.16614689  0.85780630     0.03400
H1469       H  0.98612686  0.18533015  0.85435577     0.08500
H1470       H  0.97004224  0.16113520  0.85762842     0.07400
C1471       C  0.06373808  0.00872687  0.92823327     0.80500
N1472       N  0.06390027  0.00249738  0.93510493    -0.77800
C1473       C  0.05791073  0.00314303  0.94219592     0.82900
N1474       N  0.05179924  0.01013817  0.94245616    -0.77700
C1475       C  0.05143121  0.01628732  0.93551433     0.83000
N1476       N  0.05729484  0.01544067  0.92833084    -0.79500
N1477       N  0.14467917  0.99511843  0.84512486    -0.27000
N1478       N  0.14052355  0.99031571  0.85153907    -0.34900
C1479       C  0.14311683  0.98151999  0.85073762     0.01300
C1480       C  0.14919269  0.98085181  0.84344785     0.07400
C1481       C  0.14994920  0.98959502  0.84004490    -0.05700
H1482       H  0.14062495  0.97602222  0.85499676     0.08000
H1483       H  0.15410872  0.99180481  0.83432895     0.09200
Cu1484     Cu  0.13135645  0.99642228  0.86060436     0.44200
Cu1485     Cu  0.14341246  0.00901430  0.84381317     0.42000
Cu1486     Cu  0.12913113  0.02180384  0.85896756     0.43900
N1487       N  0.12198670  0.00433869  0.86791048    -0.34400
N1488       N  0.12108687  0.01330701  0.86728710    -0.28700
C1489       C  0.11430767  0.01598121  0.87296255    -0.04800
C1490       C  0.11069818  0.00836762  0.87730694     0.07500
C1491       C  0.11583498  0.00113756  0.87398642     0.01300
H1492       H  0.11217919  0.02298367  0.87389214     0.08900
H1493       H  0.11535151  0.99407053  0.87601180     0.08000
N1494       N  0.13838193  0.02797269  0.84988240    -0.35800
N1495       N  0.14347916  0.02301710  0.84430911    -0.28000
C1496       C  0.14897925  0.02847916  0.83942044    -0.03300
C1497       C  0.14745790  0.03738464  0.84206063     0.05300
C1498       C  0.14053822  0.03684947  0.84861354     0.03400
H1499       H  0.15370776  0.02609941  0.83423888     0.08500
H1500       H  0.13741720  0.04246442  0.85225455     0.07400
N1501       N  0.71990167  0.19692066  0.38199806    -0.27000
N1502       N  0.71304556  0.19153992  0.38442987    -0.34900
C1503       C  0.71203339  0.18495878  0.37814897     0.01300
C1504       C  0.71852407  0.18626980  0.37137130     0.07400
C1505       C  0.72348993  0.19385287  0.37408627    -0.05700
H1506       H  0.70704018  0.17951861  0.37858054     0.08000
H1507       H  0.72920721  0.19695815  0.37053174     0.09200
Cu1508     Cu  0.70553836  0.19317638  0.39630246     0.44200
Cu1509     Cu  0.72362603  0.20828593  0.38960126     0.42000
Cu1510     Cu  0.71039875  0.21256016  0.41063680     0.43900
N1511       N  0.69941355  0.19525252  0.40886630    -0.34400
N1512       N  0.70113663  0.20229065  0.41422339    -0.28700
C1513       C  0.69620989  0.20136138  0.42197316    -0.04800
C1514       C  0.69128029  0.19327762  0.42149003     0.07500
C1515       C  0.69340473  0.18967802  0.41302372     0.01300
H1516       H  0.69632823  0.20612353  0.42760622     0.08900
H1517       H  0.69074698  0.18347653  0.41004627     0.08000
N1518       N  0.72022752  0.22144755  0.40524761    -0.35800
N1519       N  0.72509195  0.21976476  0.39779067    -0.28000
C1520       C  0.73075628  0.22682977  0.39619376    -0.03300
C1521       C  0.72933688  0.23335123  0.40286242     0.05300
C1522       C  0.72265893  0.22967842  0.40853565     0.03400
H1523       H  0.73542675  0.22728129  0.39046292     0.08500
H1524       H  0.71980987  0.23272733  0.41463041     0.07400
N1525       N  0.72147078  0.12768408  0.31265212    -0.27000
N1526       N  0.71475455  0.12520473  0.31820431    -0.34900
C1527       C  0.71413982  0.13123168  0.32507086     0.01300
C1528       C  0.72071036  0.13791477  0.32376782     0.07400
C1529       C  0.72527519  0.13543454  0.31583053    -0.05700
H1530       H  0.70929321  0.13075065  0.33065529     0.08000
H1531       H  0.73111271  0.13882279  0.31276175     0.09200
Cu1532     Cu  0.70687398  0.11358995  0.31647913     0.44200
Cu1533     Cu  0.72539807  0.11989651  0.30143355     0.42000
Cu1534     Cu  0.71467199  0.09740111  0.29968190     0.43900
N1535       N  0.70030484  0.10133126  0.31399141    -0.34400
N1536       N  0.70335531  0.09521699  0.30809471    -0.28700
C1537       C  0.69799415  0.08776045  0.30858353    -0.04800
C1538       C  0.69115617  0.08934195  0.31497259     0.07500
C1539       C  0.69286597  0.09798908  0.31830136     0.01300
H1540       H  0.69908057  0.08158795  0.30469632     0.08900
H1541       H  0.68924476  0.10142225  0.32375915     0.08000
N1542       N  0.72503944  0.10202636  0.29104950    -0.35800
N1543       N  0.72865021  0.11028119  0.29149109    -0.28000
C1544       C  0.73464401  0.11132044  0.28457454    -0.03300
C1545       C  0.73501788  0.10327770  0.27960370     0.05300
C1546       C  0.72873152  0.09758356  0.28388844     0.03400
H1547       H  0.73819116  0.11762642  0.28311870     0.08500
H1548       H  0.72686004  0.09074648  0.28187069     0.07400
N1549       N  0.78269921  0.19717494  0.12123787    -0.27000
N1550       N  0.78950346  0.19175485  0.11872238    -0.34900
C1551       C  0.79066656  0.18526239  0.12508976     0.01300
C1552       C  0.78427392  0.18663846  0.13193424     0.07400
C1553       C  0.77924794  0.19418490  0.12924204    -0.05700
H1554       H  0.79562435  0.17978288  0.12464307     0.08000
H1555       H  0.77352770  0.19726286  0.13281821     0.09200
Cu1556     Cu  0.79647653  0.19300894  0.10645147     0.44200
Cu1557     Cu  0.77865996  0.20835461  0.11352627     0.42000
Cu1558     Cu  0.79020076  0.21163804  0.09149869     0.43900
N1559       N  0.80193852  0.19481003  0.09350816    -0.34400
N1560       N  0.79973686  0.20162772  0.08802009    -0.28700
C1561       C  0.80412521  0.20050543  0.07999494    -0.04800
C1562       C  0.80935469  0.19260669  0.08047201     0.07500
C1563       C  0.80772240  0.18916058  0.08912492     0.01300
H1564       H  0.80320123  0.20486537  0.07410878     0.08900
H1565       H  0.81036462  0.18287164  0.09195575     0.08000
N1566       N  0.78013409  0.22031885  0.09668031    -0.35800
N1567       N  0.77611930  0.21916088  0.10471334    -0.28000
C1568       C  0.77013278  0.22599705  0.10612048    -0.03300
C1569       C  0.77035960  0.23173396  0.09863139     0.05300
C1570       C  0.77669948  0.22788976  0.09272703     0.03400
H1571       H  0.76584834  0.22668262  0.11211999     0.08500
H1572       H  0.77874413  0.23046096  0.08610818     0.07400
N1573       N  0.78023402  0.12344331  0.18570957    -0.27000
N1574       N  0.78733721  0.12135390  0.18051023    -0.34900
C1575       C  0.78875693  0.12805643  0.17445319     0.01300
C1576       C  0.78224551  0.13478502  0.17585932     0.07400
C1577       C  0.77688019  0.13158912  0.18303729    -0.05700
H1578       H  0.79414405  0.12800514  0.16935784     0.08000
H1579       H  0.77086928  0.13479582  0.18596239     0.09200
Cu1580     Cu  0.79467061  0.10942009  0.18163600     0.44200
Cu1581     Cu  0.77593192  0.11487850  0.19617995     0.42000
Cu1582     Cu  0.78880764  0.09318210  0.19907224     0.43900
N1583       N  0.80140932  0.09719693  0.18322817    -0.34400
N1584       N  0.79936745  0.09109583  0.18955100    -0.28700
C1585       C  0.80494981  0.08383292  0.18844359    -0.04800
C1586       C  0.81082230  0.08554097  0.18113390     0.07500
C1587       C  0.80825782  0.09404029  0.17796146     0.01300
H1588       H  0.80468325  0.07771567  0.19256340     0.08900
H1589       H  0.81089910  0.09755621  0.17202342     0.08000
N1590       N  0.77833404  0.09777699  0.20777705    -0.35800
N1591       N  0.77389904  0.10558723  0.20672302    -0.28000
C1592       C  0.76805805  0.10671907  0.21373756    -0.03300
C1593       C  0.76877334  0.09931828  0.21958832     0.05300
C1594       C  0.77529820  0.09371831  0.21548133     0.03400
H1595       H  0.76374849  0.11266728  0.21462493     0.08500
H1596       H  0.77765674  0.08714299  0.21781658     0.07400
N1597       N  0.71535034  0.39354854  0.18394587    -0.27000
N1598       N  0.70837764  0.39545017  0.17848726    -0.34900
C1599       C  0.70727852  0.38856292  0.17254845     0.01300
C1600       C  0.71390411  0.38205287  0.17435256     0.07400
C1601       C  0.71897113  0.38545109  0.18155441    -0.05700
H1602       H  0.70229073  0.38847627  0.16707745     0.08000
H1603       H  0.72491181  0.38234953  0.18472632     0.09200
Cu1604     Cu  0.70139930  0.40775936  0.17873715     0.44200
Cu1605     Cu  0.71965340  0.40223337  0.19418213     0.42000
Cu1606     Cu  0.70876621  0.42441850  0.19569499     0.43900
N1607       N  0.69664403  0.42106058  0.17926364    -0.34400
N1608       N  0.69938849  0.42713809  0.18534006    -0.28700
C1609       C  0.69564838  0.43525984  0.18325788    -0.04800
C1610       C  0.69023602  0.43424017  0.17554926     0.07500
C1611       C  0.69108057  0.42515254  0.17317780     0.01300
H1612       H  0.69701864  0.44151876  0.18690397     0.08900
H1613       H  0.68831649  0.42186420  0.16717577     0.08000
N1614       N  0.71870849  0.41984403  0.20480072    -0.35800
N1615       N  0.72267403  0.41176351  0.20411810    -0.28000
C1616       C  0.72877721  0.41077336  0.21091298    -0.03300
C1617       C  0.72876690  0.41863995  0.21609791     0.05300
C1618       C  0.72220151  0.42421089  0.21210421     0.03400
H1619       H  0.73277382  0.40466611  0.21210054     0.08500
H1620       H  0.72013477  0.43093413  0.21432799     0.07400
N1621       N  0.71702378  0.32241540  0.11705758    -0.27000
N1622       N  0.71008878  0.32746022  0.11416117    -0.34900
C1623       C  0.70908145  0.33467914  0.11969229     0.01300
C1624       C  0.71575237  0.33422588  0.12638618     0.07400
C1625       C  0.72059508  0.32628568  0.12460167    -0.05700
H1626       H  0.70391165  0.33991202  0.11883629     0.08000
H1627       H  0.72643927  0.32367230  0.12834240     0.09200
Cu1628     Cu  0.70284627  0.32487877  0.10236039     0.44200
Cu1629     Cu  0.72151817  0.31096559  0.10998934     0.42000
Cu1630     Cu  0.71225053  0.30851921  0.08669899     0.43900
N1631       N  0.69803433  0.32317382  0.08924579    -0.34400
N1632       N  0.70170532  0.31750552  0.08325867    -0.28700
C1633       C  0.69761267  0.31881317  0.07510685    -0.04800
C1634       C  0.69096308  0.32552563  0.07610299     0.07500
C1635       C  0.69149963  0.32816520  0.08513885     0.01300
H1636       H  0.69944492  0.31527015  0.06889033     0.08900
H1637       H  0.68777369  0.33366101  0.08838158     0.08000
N1638       N  0.72176650  0.29967762  0.09260567    -0.35800
N1639       N  0.72488493  0.30045448  0.10106206    -0.28000
C1640       C  0.73041991  0.29334303  0.10289282    -0.03300
C1641       C  0.73091930  0.28787482  0.09521746     0.05300
C1642       C  0.72531325  0.29207331  0.08883568     0.03400
H1643       H  0.73380805  0.29220457  0.10936945     0.08500
H1644       H  0.72367764  0.28963094  0.08206542     0.07400
N1645       N  0.77414320  0.39696004  0.31002009    -0.27000
N1646       N  0.77893895  0.40029135  0.31689441    -0.34900
C1647       C  0.77973649  0.39390575  0.32340292     0.01300
C1648       C  0.77512939  0.38618626  0.32054728     0.07400
C1649       C  0.77166462  0.38833493  0.31200174    -0.05700
H1650       H  0.78345405  0.39479429  0.32973276     0.08000
H1651       H  0.76784951  0.38391489  0.30747658     0.09200
Cu1652     Cu  0.78451416  0.41320570  0.31691350     0.44200
Cu1653     Cu  0.77168144  0.40454187  0.29836396     0.42000
Cu1654     Cu  0.78109057  0.42797546  0.29746820     0.43900
N1655       N  0.79089725  0.42566108  0.31542974    -0.34400
N1656       N  0.78991161  0.43109075  0.30829413    -0.28700
C1657       C  0.79558572  0.43828941  0.30930454    -0.04800
C1658       C  0.80027100  0.43735782  0.31753826     0.07500
C1659       C  0.79711371  0.42923211  0.32115784     0.01300
H1660       H  0.79645404  0.44359892  0.30426001     0.08900
H1661       H  0.79927209  0.42605021  0.32746867     0.08000
N1662       N  0.77240064  0.42227500  0.28763984    -0.35800
N1663       N  0.76941616  0.41376501  0.28790704    -0.28000
C1664       C  0.76426260  0.41213960  0.28050059    -0.03300
C1665       C  0.76387368  0.41997111  0.27523255     0.05300
C1666       C  0.76905356  0.42630833  0.28005994     0.03400
H1667       H  0.76099545  0.40566992  0.27909210     0.08500
H1668       H  0.77014399  0.43339012  0.27837834     0.07400
N1669       N  0.77523237  0.32815135  0.37948680    -0.27000
N1670       N  0.78131155  0.33417335  0.38237608    -0.34900
C1671       C  0.78233422  0.34067527  0.37600207     0.01300
C1672       C  0.77670391  0.33861080  0.36868423     0.07400
C1673       C  0.77225443  0.33063359  0.37113839    -0.05700
H1674       H  0.78680810  0.34652261  0.37666934     0.08000
H1675       H  0.76703525  0.32706170  0.36729562     0.09200
Cu1676     Cu  0.78799073  0.33326330  0.39481133     0.44200
Cu1677     Cu  0.77122014  0.31709171  0.38733075     0.42000
Cu1678     Cu  0.78408908  0.31296498  0.40843793     0.43900
N1679       N  0.79479740  0.33059542  0.40692519    -0.34400
N1680       N  0.79358314  0.32315241  0.41187836    -0.28700
C1681       C  0.79927990  0.32349748  0.41913249    -0.04800
C1682       C  0.80423388  0.33159620  0.41876573     0.07500
C1683       C  0.80123409  0.33584567  0.41087049     0.01300
H1684       H  0.79989159  0.31814550  0.42417711     0.08900
H1685       H  0.80356386  0.34230979  0.40817528     0.08000
N1686       N  0.77349927  0.30454835  0.40361968    -0.35800
N1687       N  0.76876094  0.30627672  0.39610921    -0.28000
C1688       C  0.76248708  0.29968126  0.39487204    -0.03300
C1689       C  0.76322072  0.29341860  0.40191867     0.05300
C1690       C  0.77036048  0.29671099  0.40730345     0.03400
H1691       H  0.75781381  0.29939826  0.38913597     0.08500
H1692       H  0.77331096  0.29350468  0.41326083     0.07400
N1693       N  0.01483619  0.66821955  0.35295977    -0.27000
N1694       N  0.01995467  0.66284728  0.35810611    -0.34900
C1695       C  0.02887668  0.66435982  0.35603408     0.01300
C1696       C  0.02924568  0.67096924  0.34922455     0.07400
C1697       C  0.02021810  0.67318894  0.34746205    -0.05700
H1698       H  0.03460967  0.66072248  0.35901216     0.08000
H1699       H  0.01771622  0.67799881  0.34243643     0.09200
Cu1700     Cu  0.01386459  0.65353757  0.36708479     0.44200
Cu1701     Cu  0.00077208  0.66836234  0.35308944     0.42000
Cu1702     Cu  0.98794663  0.65286160  0.36636000     0.43900
N1703       N  0.00542923  0.64522046  0.37514836    -0.34400
N1704       N  0.99632173  0.64512875  0.37498330    -0.28700
C1705       C  0.99328612  0.63900295  0.38112140    -0.04800
C1706       C  0.00076866  0.63500929  0.38541039     0.07500
C1707       C  0.00835411  0.63906923  0.38133665     0.01300
H1708       H  0.98610431  0.63750992  0.38231748     0.08900
H1709       H  0.01550722  0.63747890  0.38250776     0.08000
N1710       N  0.98173398  0.66178975  0.35713879    -0.35800
N1711       N  0.98673819  0.66768615  0.35249003    -0.28000
C1712       C  0.98129402  0.67269270  0.34709144    -0.03300
C1713       C  0.97234402  0.66990345  0.34838157     0.05300
C1714       C  0.97284195  0.66285475  0.35471218     0.03400
H1715       H  0.98372844  0.67780808  0.34234643     0.08500
H1716       H  0.96720022  0.65882277  0.35731996     0.07400
C1717       C  0.99868574  0.58258526  0.43018524     0.80500
N1718       N  0.99209241  0.57602310  0.43005855    -0.77800
C1719       C  0.99222471  0.56908168  0.43623713     0.82900
N1720       N  0.99908816  0.56882728  0.44258017    -0.77700
C1721       C  0.00560205  0.57547658  0.44287512     0.83000
N1722       N  0.00547509  0.58220464  0.43651107    -0.79500
N1723       N  0.84752664  0.49410794  0.35106005    -0.27000
N1724       N  0.85366810  0.48920565  0.35552688    -0.34900
C1725       C  0.85196087  0.48029067  0.35390982     0.01300
C1726       C  0.84437621  0.47974537  0.34817035     0.07400
C1727       C  0.84178332  0.48860899  0.34653369    -0.05700
H1728       H  0.85578372  0.47467513  0.35682479     0.08000
H1729       H  0.83604893  0.49090728  0.34243262     0.09200
Cu1730     Cu  0.86345531  0.49566934  0.36376824     0.44200
Cu1731     Cu  0.84704671  0.50802606  0.35121530     0.42000
Cu1732     Cu  0.86244604  0.52153118  0.36392684     0.43900
N1733       N  0.87151827  0.50434299  0.37184997    -0.34400
N1734       N  0.87106017  0.51337717  0.37204225    -0.28700
C1735       C  0.87719418  0.51649423  0.37818732    -0.04800
C1736       C  0.88184350  0.50914717  0.38194165     0.07500
C1737       C  0.87797978  0.50156547  0.37782489     0.01300
H1738       H  0.87830096  0.52362117  0.37970967     0.08900
H1739       H  0.87964815  0.49450588  0.37915720     0.08000
N1740       N  0.85308909  0.52721748  0.35463752    -0.35800
N1741       N  0.84738367  0.52190351  0.35009930    -0.28000
C1742       C  0.84243732  0.52688145  0.34422368    -0.03300
C1743       C  0.84515920  0.53583965  0.34493806     0.05300
C1744       C  0.85185966  0.53588351  0.35171959     0.03400
H1745       H  0.83736429  0.52411534  0.33959951     0.08500
H1746       H  0.85576369  0.54169168  0.35407728     0.07400
C1747       C  0.93125123  0.51208067  0.43077457     0.80500
N1748       N  0.93795551  0.51851425  0.43065420    -0.77800
C1749       C  0.94455733  0.51873645  0.43720670     0.82900
N1750       N  0.94441337  0.51242809  0.44402488    -0.77700
C1751       C  0.93789048  0.50577899  0.44413796     0.83000
N1752       N  0.93140393  0.50561023  0.43744204    -0.79500
C1753       C  0.93293496  0.43993002  0.49580249     0.80500
N1754       N  0.93256472  0.44689825  0.48968181    -0.77800
C1755       C  0.93865739  0.45390475  0.49005566     0.82900
N1756       N  0.94527188  0.45379218  0.49662061    -0.77700
C1757       C  0.94566635  0.44701551  0.50294906     0.83000
N1758       N  0.93945576  0.44008993  0.50247048    -0.79500
N1759       N  0.85541717  0.35305839  0.50709467    -0.27000
N1760       N  0.86094800  0.35794829  0.51226970    -0.34900
C1761       C  0.85982678  0.35532322  0.52103701     0.01300
C1762       C  0.85315254  0.34852331  0.52134135     0.07400
C1763       C  0.85059623  0.34729082  0.51233041    -0.05700
H1764       H  0.86376446  0.35800190  0.52668140     0.08000
H1765       H  0.84557707  0.34251634  0.50972513     0.09200
Cu1766     Cu  0.86949651  0.36788237  0.50658279     0.44200
Cu1767     Cu  0.85478018  0.35417779  0.49313207     0.42000
Cu1768     Cu  0.86771625  0.37093605  0.48115433     0.43900
N1769       N  0.87671375  0.37750658  0.49885416    -0.34400
N1770       N  0.87598534  0.37868818  0.48990152    -0.28700
C1771       C  0.88154531  0.38558229  0.48736038    -0.04800
C1772       C  0.88608441  0.38880816  0.49500502     0.07500
C1773       C  0.88279887  0.38357427  0.50216864     0.01300
H1774       H  0.88233664  0.38798512  0.48042013     0.08900
H1775       H  0.88463055  0.38418133  0.50929674     0.08000
N1776       N  0.85881152  0.36189926  0.47454289    -0.35800
N1777       N  0.85422699  0.35567458  0.47920033    -0.28000
C1778       C  0.84893205  0.35084288  0.47350978    -0.03300
C1779       C  0.85023350  0.35405611  0.46474437     0.05300
C1780       C  0.85646122  0.36119236  0.46564213     0.03400
H1781       H  0.84421096  0.34557252  0.47567412     0.08500
H1782       H  0.85900963  0.36556572  0.46026085     0.07400
N1783       N  0.98727880  0.36407285  0.65036078    -0.27000
N1784       N  0.98258970  0.36724234  0.64332298    -0.34900
C1785       C  0.97373957  0.36458500  0.64418930     0.01300
C1786       C  0.97286094  0.35955806  0.65222294     0.07400
C1787       C  0.98162781  0.35940567  0.65587693    -0.05700
H1788       H  0.96847683  0.36587772  0.63914636     0.08000
H1789       H  0.98382180  0.35593912  0.66202541     0.09200
Cu1790     Cu  0.98903074  0.37463814  0.63289739     0.44200
Cu1791     Cu  0.00132741  0.36522770  0.65185513     0.42000
Cu1792     Cu  0.01458882  0.37505116  0.63390187     0.43900
N1793       N  0.99755713  0.38167699  0.62376844    -0.34400
N1794       N  0.00665441  0.38166115  0.62402475    -0.28700
C1795       C  0.00985085  0.38703437  0.61727372    -0.04800
C1796       C  0.00246544  0.39063721  0.61247322     0.07500
C1797       C  0.99478582  0.38713946  0.61690071     0.01300
H1798       H  0.01706121  0.38837587  0.61607493     0.08900
H1799       H  0.98766895  0.38875871  0.61555021     0.08000
N1800       N  0.02053318  0.36849933  0.64509318    -0.35800
N1801       N  0.01550723  0.36512950  0.65180818    -0.28000
C1802       C  0.02102725  0.36110468  0.65795310    -0.03300
C1803       C  0.03001928  0.36199923  0.65503454     0.05300
C1804       C  0.02945228  0.36664598  0.64678841     0.03400
H1805       H  0.01862026  0.35740472  0.66388326     0.08500
H1806       H  0.03508098  0.36838638  0.64228644     0.07400
C1807       C  0.00227837  0.44076598  0.56503728     0.80500
N1808       N  0.00891412  0.44725720  0.56435934    -0.77800
C1809       C  0.00842784  0.45378562  0.55775894     0.82900
N1810       N  0.00128291  0.45366237  0.55176055    -0.77700
C1811       C  0.99466950  0.44711267  0.55227451     0.83000
N1812       N  0.99520760  0.44070463  0.55897263    -0.79500
N1813       N  0.14519551  0.66787762  0.51409632    -0.27000
N1814       N  0.14077389  0.66191176  0.51921164    -0.34900
C1815       C  0.14281575  0.66356362  0.52805197     0.01300
C1816       C  0.14881768  0.67093464  0.52837074     0.07400
C1817       C  0.15009394  0.67347695  0.51939880    -0.05700
H1818       H  0.14014902  0.65971239  0.53376946     0.08000
H1819       H  0.15453602  0.67882763  0.51686817     0.09200
Cu1820     Cu  0.13249087  0.65199935  0.51317980     0.44200
Cu1821     Cu  0.14535419  0.66760050  0.50015737     0.42000
Cu1822     Cu  0.13411788  0.65021515  0.48758476     0.43900
N1823       N  0.12461354  0.64342976  0.50491536    -0.34400
N1824       N  0.12527024  0.64268750  0.49591117    -0.28700
C1825       C  0.11916485  0.63643213  0.49301329    -0.04800
C1826       C  0.11433695  0.63320404  0.50048759     0.07500
C1827       C  0.11801371  0.63773849  0.50790899     0.01300
H1828       H  0.11823476  0.63445233  0.48596235     0.08900
H1829       H  0.11611766  0.63687900  0.51500212     0.08000
N1830       N  0.14358338  0.65909700  0.48165983    -0.35800
N1831       N  0.14761959  0.66549020  0.48655797    -0.28000
C1832       C  0.15369371  0.66999228  0.48138823    -0.03300
C1833       C  0.15357478  0.66626186  0.47276584     0.05300
C1834       C  0.14696063  0.65945163  0.47307793     0.03400
H1835       H  0.15787465  0.67560690  0.48375392     0.08500
H1836       H  0.14489291  0.65501856  0.46755818     0.07400
C1837       C  0.06642173  0.58322233  0.49959596     0.80500
N1838       N  0.05974558  0.58275207  0.49312589    -0.77800
C1839       C  0.05369143  0.57568982  0.49287260     0.82900
N1840       N  0.05450717  0.56889276  0.49913922    -0.77700
C1841       C  0.06118935  0.56914770  0.50563688     0.83000
N1842       N  0.06702856  0.57637568  0.50585866    -0.79500
N1843       N  0.15642649  0.52088634  0.64237618    -0.27000
N1844       N  0.15112443  0.52626623  0.63742206    -0.34900
C1845       C  0.15468086  0.53475718  0.63756468     0.01300
C1846       C  0.16267902  0.53462744  0.64275681     0.07400
C1847       C  0.16348297  0.52571786  0.64573878    -0.05700
H1848       H  0.15155526  0.54063125  0.63435851     0.08000
H1849       H  0.16849424  0.52305315  0.65049804     0.09200
Cu1850     Cu  0.13913899  0.52142335  0.63123588     0.44200
Cu1851     Cu  0.15316660  0.50756588  0.64546011     0.42000
Cu1852     Cu  0.13221292  0.49769501  0.63720811     0.43900
N1853       N  0.12827977  0.51428027  0.62520823    -0.34400
N1854       N  0.12577261  0.50585871  0.62734123    -0.28700
C1855       C  0.11884964  0.50332508  0.62178026    -0.04800
C1856       C  0.11699520  0.51038669  0.61575485     0.07500
C1857       C  0.12303962  0.51725254  0.61823030     0.01300
H1858       H  0.11559824  0.49669871  0.62190857     0.08900
H1859       H  0.12364718  0.52392603  0.61514696     0.08000
N1860       N  0.14067982  0.49122106  0.64679994    -0.35800
N1861       N  0.14836913  0.49503827  0.64969639    -0.28000
C1862       C  0.15224296  0.48972780  0.65608294    -0.03300
C1863       C  0.14677751  0.48215296  0.65733645     0.05300
C1864       C  0.13952525  0.48323226  0.65126610     0.03400
H1865       H  0.15853893  0.49133542  0.65965896     0.08500
H1866       H  0.13373876  0.47870145  0.65036448     0.07400
C1867       C  0.06871179  0.51111849  0.56574275     0.80500
N1868       N  0.06176265  0.50490906  0.56540243    -0.77800
C1869       C  0.05503925  0.50548674  0.55893548     0.82900
N1870       N  0.05530057  0.51252877  0.55289061    -0.77700
C1871       C  0.06208757  0.51890047  0.55321554     0.83000
N1872       N  0.06877538  0.51811748  0.55964014    -0.79500
C1873       C  0.11009894  0.51043816  0.60824932    -0.11700
C1874       C  0.11217229  0.51372402  0.59940283     0.03800
C1875       C  0.10542231  0.51365239  0.59256734    -0.12200
C1876       C  0.09652293  0.51040234  0.59433391     0.18600
C1877       C  0.09447999  0.50701654  0.60311882    -0.09300
C1878       C  0.10124485  0.50700048  0.60994321    -0.02200
H1879       H  0.10713885  0.51611271  0.58579879     0.05200
C1880       C  0.08949016  0.51059469  0.58694209     0.20600
H1881       H  0.09951640  0.50444901  0.61667354     0.10300
C1882       C  0.08600010  0.50238306  0.58345325    -0.15600
C1883       C  0.07929492  0.50233317  0.57655546     0.03300
C1884       C  0.07591721  0.51065834  0.57298438    -0.10900
C1885       C  0.07959130  0.51885051  0.57638569    -0.00900
C1886       C  0.08627319  0.51887889  0.58326771    -0.06100
H1887       H  0.08856129  0.49596002  0.58608086     0.06300
H1888       H  0.07713803  0.52532023  0.57380237     0.09700
Br1889     Br  0.08242781  0.50272349  0.60624608    -0.05800
Br1890     Br  0.12423270  0.51779286  0.59599338    -0.02800
Br1891     Br  0.07553301  0.49066021  0.57197476     0.00100
Br1892     Br  0.09051229  0.53045416  0.58766477    -0.04300
C1893       C  0.06174418  0.56178733  0.51264564    -0.11700
C1894       C  0.07014821  0.55883990  0.51654877     0.03800
C1895       C  0.07018922  0.55176370  0.52300696    -0.12200
C1896       C  0.06200424  0.54751173  0.52574676     0.18600
C1897       C  0.05361880  0.55060774  0.52207578    -0.09300
C1898       C  0.05356270  0.55757252  0.51553696    -0.02200
H1899       H  0.07667245  0.54949734  0.52585830     0.05200
C1900       C  0.06232946  0.54006622  0.53263386     0.20600
H1901       H  0.04702237  0.55984834  0.51286153     0.10300
C1902       C  0.06516365  0.54204454  0.54156676    -0.15600
C1903       C  0.06525852  0.53529197  0.54835414     0.03300
C1904       C  0.06241650  0.52630749  0.54626185    -0.10900
C1905       C  0.05979849  0.52432183  0.53723768    -0.00900
C1906       C  0.05984628  0.53104906  0.53044303    -0.06100
H1907       H  0.06716558  0.54893989  0.54330931     0.06300
H1908       H  0.05787062  0.51743978  0.53539597     0.09700
Br1909     Br  0.04200267  0.54590574  0.52613664    -0.05800
Br1910     Br  0.08187673  0.56377592  0.51312288    -0.02800
Br1911     Br  0.06882805  0.53900833  0.56040087     0.00100
Br1912     Br  0.05686165  0.52748646  0.51818980    -0.04300
C1913       C  0.07317828  0.59095580  0.49980752    -0.11700
C1914       C  0.07288609  0.59851881  0.49370673     0.03800
C1915       C  0.07956895  0.60537559  0.49425851    -0.12200
C1916       C  0.08666223  0.60493723  0.50068004     0.18600
C1917       C  0.08697862  0.59757413  0.50679728    -0.09300
C1918       C  0.08029865  0.59072649  0.50635831    -0.02200
H1919       H  0.07931326  0.61106076  0.48953391     0.05200
C1920       C  0.09380307  0.61211778  0.50069972     0.20600
H1921       H  0.08078036  0.58515231  0.51117627     0.10300
C1922       C  0.09202120  0.62047274  0.50499598    -0.15600
C1923       C  0.09860647  0.62744095  0.50498198     0.03300
C1924       C  0.10712356  0.62610268  0.50055657    -0.10900
C1925       C  0.10880943  0.61779323  0.49611365    -0.00900
C1926       C  0.10225769  0.61081035  0.49621028    -0.06100
H1927       H  0.08546434  0.62158658  0.50832639     0.06300
H1928       H  0.11530253  0.61668194  0.49266155     0.09700
Br1929     Br  0.09647271  0.59658319  0.51583138    -0.05800
Br1930     Br  0.06380534  0.60023533  0.48433675    -0.02800
Br1931     Br  0.09536561  0.63883569  0.51055539     0.00100
Br1932     Br  0.10508508  0.59960617  0.49007805    -0.04300
C1933       C  0.01519527  0.46139507  0.55751776    -0.11700
C1934       C  0.02468661  0.46000326  0.55898629     0.03800
C1935       C  0.03072036  0.46746039  0.55913372    -0.12200
C1936       C  0.02752399  0.47642717  0.55791884     0.18600
C1937       C  0.01807893  0.47778407  0.55613648    -0.09300
C1938       C  0.01205382  0.47032033  0.55591931    -0.02200
H1939       H  0.03798924  0.46624833  0.56019109     0.05200
C1940       C  0.03419449  0.48416919  0.55838311     0.20600
H1941       H  0.00480628  0.47154126  0.55473618     0.10300
C1942       C  0.03534637  0.48992449  0.55081293    -0.15600
C1943       C  0.04175358  0.49708006  0.55086930     0.03300
C1944       C  0.04756583  0.49841743  0.55856183    -0.10900
C1945       C  0.04627604  0.49266290  0.56617604    -0.00900
C1946       C  0.03964686  0.48572393  0.56618380    -0.06100
H1947       H  0.03124100  0.48880538  0.54474659     0.06300
H1948       H  0.05038971  0.49359479  0.57226479     0.09700
Br1949     Br  0.01290721  0.48969828  0.55439338    -0.05800
Br1950     Br  0.02991828  0.44805571  0.56027183    -0.02800
Br1951     Br  0.04202448  0.50447870  0.54003902     0.00100
Br1952     Br  0.03805331  0.47882138  0.57721700    -0.04300
C1953       C  0.00283548  0.39759663  0.60502820    -0.11700
C1954       C  0.99614308  0.39816003  0.59802777     0.03800
C1955       C  0.99654934  0.40521788  0.59156673    -0.12200
C1956       C  0.00366436  0.41165453  0.59171386     0.18600
C1957       C  0.01053343  0.41091577  0.59843451    -0.09300
C1958       C  0.01006854  0.40397247  0.60499885    -0.02200
H1959       H  0.99132771  0.40563230  0.58631067     0.05200
C1960       C  0.00362166  0.41921544  0.58495738     0.20600
H1961       H  0.01530765  0.40371421  0.61023746     0.10300
C1962       C  0.99720854  0.42630063  0.58595010    -0.15600
C1963       C  0.99680387  0.43345739  0.57961113     0.03300
C1964       C  0.00287500  0.43360629  0.57211571    -0.10900
C1965       C  0.00935901  0.42658576  0.57116666    -0.00900
C1966       C  0.00971692  0.41938142  0.57746725    -0.06100
H1967       H  0.99250200  0.42625906  0.59168605     0.06300
H1968       H  0.01400635  0.42659333  0.56538302     0.09700
Br1969     Br  0.02052039  0.41941854  0.59910716    -0.05800
Br1970     Br  0.98668773  0.38919941  0.59635844    -0.02800
Br1971     Br  0.98802946  0.44301397  0.58158988     0.00100
Br1972     Br  0.01833282  0.40971069  0.57534845    -0.04300
C1973       C  0.95298959  0.44693684  0.51012011    -0.11700
C1974       C  0.95738354  0.45497594  0.51326715     0.03800
C1975       C  0.96417970  0.45444138  0.52002870    -0.12200
C1976       C  0.96688912  0.44605167  0.52374609     0.18600
C1977       C  0.96260828  0.43804154  0.52061883    -0.09300
C1978       C  0.95571380  0.43853389  0.51394061    -0.02200
H1979       H  0.96737706  0.46065566  0.52244715     0.05200
C1980       C  0.97411309  0.44588717  0.53093932     0.20600
H1981       H  0.95258840  0.43225503  0.51161126     0.10300
C1982       C  0.97178926  0.44340422  0.53990887    -0.15600
C1983       C  0.97832091  0.44368040  0.54695809     0.03300
C1984       C  0.98741750  0.44657818  0.54510625    -0.10900
C1985       C  0.98970076  0.44901763  0.53609226    -0.00900
C1986       C  0.98319173  0.44863458  0.52905876    -0.06100
H1987       H  0.96479706  0.44138891  0.54146462     0.06300
H1988       H  0.99664610  0.45112174  0.53445719     0.09700
Br1989     Br  0.96626320  0.42623834  0.52494737    -0.05800
Br1990     Br  0.95433547  0.46701549  0.50905829    -0.02800
Br1991     Br  0.97414126  0.44058453  0.55900469     0.00100
Br1992     Br  0.98711544  0.45163012  0.51690960    -0.04300
C1993       C  0.92599068  0.43247052  0.49556672    -0.11700
C1994       C  0.92222018  0.42911074  0.48732046     0.03800
C1995       C  0.91566050  0.42211832  0.48753132    -0.12200
C1996       C  0.91254450  0.41842760  0.49582468     0.18600
C1997       C  0.91631958  0.42174531  0.50404907    -0.09300
C1998       C  0.92300033  0.42862200  0.50385338    -0.02200
H1999       H  0.91300893  0.41948492  0.48114552     0.05200
C2000       C  0.90560527  0.41094831  0.49571242     0.20600
H2001       H  0.92572651  0.43111477  0.51026379     0.10300
C2002       C  0.90781114  0.40247987  0.49963370    -0.15600
C2003       C  0.90151611  0.39525678  0.49960891     0.03300
C2004       C  0.89287608  0.39632829  0.49537763    -0.10900
C2005       C  0.89072178  0.40472077  0.49129093    -0.00900
C2006       C  0.89693076  0.41202296  0.49151656    -0.06100
H2007       H  0.91451437  0.40145688  0.50268258     0.06300
H2008       H  0.88409474  0.40565770  0.48805384     0.09700
Br2009     Br  0.91230727  0.41745034  0.51578206    -0.05800
Br2010     Br  0.92603288  0.43331545  0.47548377    -0.02800
Br2011     Br  0.90533982  0.38392638  0.50495513     0.00100
Br2012     Br  0.89302875  0.42341406  0.48634323    -0.04300
C2013       C  0.93844651  0.46144447  0.48317782    -0.11700
C2014       C  0.93039966  0.46399763  0.47833761     0.03800
C2015       C  0.93072007  0.47114427  0.47197558    -0.12200
C2016       C  0.93890424  0.47587726  0.47019987     0.18600
C2017       C  0.94689664  0.47340812  0.47502613    -0.09300
C2018       C  0.94660960  0.46630740  0.48142567    -0.02200
H2019       H  0.92448748  0.47309284  0.46842465     0.05200
C2020       C  0.93887404  0.48347433  0.46344543     0.20600
H2021       H  0.95289330  0.46450599  0.48495708     0.10300
C2022       C  0.94068478  0.49240848  0.46637395    -0.15600
C2023       C  0.94045753  0.49976489  0.46024474     0.03300
C2024       C  0.93827840  0.49827056  0.45096018    -0.10900
C2025       C  0.93639222  0.48932849  0.44807393    -0.00900
C2026       C  0.93673429  0.48197945  0.45417957    -0.06100
H2027       H  0.94217231  0.49368076  0.47350950     0.06300
H2028       H  0.93478763  0.48801052  0.44097179     0.09700
Br2029     Br  0.95848534  0.47926696  0.47287272    -0.05800
Br2030     Br  0.91857460  0.45850822  0.48029139    -0.02800
Br2031     Br  0.94257758  0.51171740  0.46512434     0.00100
Br2032     Br  0.93457391  0.46998354  0.44943034    -0.04300
C2033       C  0.88919352  0.50941500  0.38898850    -0.11700
C2034       C  0.89730258  0.50416028  0.38824611     0.03800
C2035       C  0.90404953  0.50465018  0.39506045    -0.12200
C2036       C  0.90287725  0.51022372  0.40276341     0.18600
C2037       C  0.89480745  0.51552264  0.40347797    -0.09300
C2038       C  0.88811322  0.51513712  0.39660319    -0.02200
H2039       H  0.91030309  0.50070761  0.39430613     0.05200
C2040       C  0.91022232  0.51059060  0.40984330     0.20600
H2041       H  0.88193581  0.51920435  0.39730421     0.10300
C2042       C  0.91464069  0.51889275  0.41163454    -0.15600
C2043       C  0.92137660  0.51962006  0.41843423     0.03300
C2044       C  0.92406865  0.51180845  0.42348923    -0.10900
C2045       C  0.91969376  0.50346779  0.42156568    -0.00900
C2046       C  0.91284734  0.50281557  0.41486942    -0.06100
H2047       H  0.91270269  0.52491892  0.40780667     0.06300
H2048       H  0.92157819  0.49737420  0.42530625     0.09700
Br2049     Br  0.89239773  0.52309887  0.41389384    -0.05800
Br2050     Br  0.89990213  0.49668621  0.37780948    -0.02800
Br2051     Br  0.92597395  0.53167164  0.42077200     0.00100
Br2052     Br  0.90701936  0.49121046  0.41316376    -0.04300
C2053       C  0.98514934  0.56167387  0.43601727    -0.11700
C2054       C  0.97630970  0.56275038  0.43203250     0.03800
C2055       C  0.96995916  0.55556409  0.43229667    -0.12200
C2056       C  0.97213658  0.54723818  0.43644814     0.18600
C2057       C  0.98094851  0.54602875  0.44019341    -0.09300
C2058       C  0.98730768  0.55319284  0.44001813    -0.02200
H2059       H  0.96319808  0.55651874  0.42934342     0.05200
C2060       C  0.96512700  0.53989682  0.43675968     0.20600
H2061       H  0.99403520  0.55205339  0.44296942     0.10300
C2062       C  0.96293529  0.53518231  0.42872990    -0.15600
C2063       C  0.95634782  0.52821786  0.42876000     0.03300
C2064       C  0.95177037  0.52587474  0.43694922    -0.10900
C2065       C  0.95400789  0.53058747  0.44499499    -0.00900
C2066       C  0.96054992  0.53760315  0.44492952    -0.06100
H2067       H  0.96644488  0.53686889  0.42242405     0.06300
H2068       H  0.95050073  0.52895330  0.45131469     0.09700
Br2069     Br  0.98468037  0.53460222  0.44538970    -0.05800
Br2070     Br  0.97206463  0.57382307  0.42645302    -0.02800
Br2071     Br  0.95433966  0.52177856  0.41752762     0.00100
Br2072     Br  0.96276653  0.54412374  0.45606290    -0.04300
C2073       C  0.01275493  0.57544798  0.45009250    -0.11700
C2074       C  0.01521923  0.58348267  0.45481648     0.03800
C2075       C  0.02207133  0.58320761  0.46152649    -0.12200
C2076       C  0.02665388  0.57505793  0.46361780     0.18600
C2077       C  0.02425885  0.56705279  0.45887884    -0.09300
C2078       C  0.01730402  0.56727379  0.45225150    -0.02200
H2079       H  0.02378450  0.58938196  0.46520755     0.05200
C2080       C  0.03369588  0.57501513  0.47095765     0.20600
H2081       H  0.01557751  0.56106858  0.44863165     0.10300
C2082       C  0.03175534  0.57067040  0.47926750    -0.15600
C2083       C  0.03808595  0.57074148  0.48648737     0.03300
C2084       C  0.04664044  0.57526034  0.48546878    -0.10900
C2085       C  0.04852478  0.57958453  0.47707774    -0.00900
C2086       C  0.04217294  0.57949458  0.46989490    -0.06100
H2087       H  0.02519203  0.56730254  0.48018354     0.06300
H2088       H  0.05504474  0.58296973  0.47601604     0.09700
Br2089     Br  0.03059958  0.55577614  0.46096040    -0.05800
Br2090     Br  0.00911335  0.59492923  0.45284150    -0.02800
Br2091     Br  0.03422489  0.56496516  0.49761068     0.00100
Br2092     Br  0.04550135  0.58533771  0.45864325    -0.04300
C2093       C  0.00049695  0.62744913  0.39221144    -0.11700
C2094       C  0.00706770  0.62646957  0.39927390     0.03800
C2095       C  0.00650900  0.61907153  0.40531595    -0.12200
C2096       C  0.99946955  0.61258674  0.40456348     0.18600
C2097       C  0.99276517  0.61369345  0.39773061    -0.09300
C2098       C  0.99333754  0.62102795  0.39164032    -0.02200
H2099       H  0.01156574  0.61840448  0.41070341     0.05200
C2100       C  0.99922104  0.60475869  0.41099094     0.20600
H2101       H  0.98821118  0.62159874  0.38631659     0.10300
C2102       C  0.99194833  0.60398768  0.41725709    -0.15600
C2103       C  0.99156731  0.59670866  0.42344562     0.03300
C2104       C  0.99858844  0.59009611  0.42348911    -0.10900
C2105       C  0.00590925  0.59091336  0.41730811    -0.00900
C2106       C  0.00623135  0.59811754  0.41103645    -0.06100
H2107       H  0.98659323  0.60911991  0.41738387     0.06300
H2108       H  0.01136030  0.58587800  0.41731196     0.09700
Br2109     Br  0.98286387  0.60519388  0.39621646    -0.05800
Br2110     Br  0.01656848  0.63523579  0.40158686    -0.02800
Br2111     Br  0.98165816  0.59642176  0.43207929     0.00100
Br2112     Br  0.01620897  0.59841563  0.40246190    -0.04300
C2113       C  0.81148658  0.33499707  0.42505756    -0.11700
C2114       C  0.81076865  0.33423949  0.43465278     0.03800
C2115       C  0.81768509  0.33781884  0.44024228    -0.12200
C2116       C  0.82542170  0.34215053  0.43650742     0.18600
C2117       C  0.82624806  0.34278425  0.42694999    -0.09300
C2118       C  0.81926259  0.33934651  0.42133582    -0.02200
H2119       H  0.81701551  0.33724163  0.44759170     0.05200
C2120       C  0.83270352  0.34542528  0.44279580     0.20600
H2121       H  0.82001996  0.33989826  0.41399630     0.10300
C2122       C  0.83747234  0.33897079  0.44802561    -0.15600
C2123       C  0.84360638  0.34166130  0.45484516     0.03300
C2124       C  0.84508524  0.35101421  0.45657228    -0.10900
C2125       C  0.84068415  0.35749283  0.45101996    -0.00900
C2126       C  0.83444456  0.35477823  0.44423971    -0.06100
H2127       H  0.83624694  0.33177015  0.44692741     0.06300
H2128       H  0.84167581  0.36469388  0.45231582     0.09700
Br2129     Br  0.83700876  0.34777660  0.42125222    -0.05800
Br2130     Br  0.80033728  0.32892440  0.44065420    -0.02800
Br2131     Br  0.84983320  0.33220023  0.46148268     0.00100
Br2132     Br  0.82787639  0.36409513  0.43775406    -0.04300
C2133       C  0.80754652  0.44321025  0.32158345    -0.11700
C2134       C  0.80724427  0.45283839  0.32125406     0.03800
C2135       C  0.81401672  0.45795213  0.32571885    -0.12200
C2136       C  0.82110468  0.45367642  0.33059433     0.18600
C2137       C  0.82145215  0.44411974  0.33092976    -0.09300
C2138       C  0.81475057  0.43898279  0.32642487    -0.02200
H2139       H  0.81364136  0.46532724  0.32556618     0.05200
C2140       C  0.82777673  0.45935151  0.33564557     0.20600
H2141       H  0.81514421  0.43162076  0.32679261     0.10300
C2142       C  0.82517898  0.46306113  0.34408044    -0.15600
C2143       C  0.83089866  0.46923395  0.34861251     0.03300
C2144       C  0.83940270  0.47171279  0.34475035    -0.10900
C2145       C  0.84216910  0.46773005  0.33648605    -0.00900
C2146       C  0.83640776  0.46159190  0.33191139    -0.06100
H2147       H  0.81854110  0.46138575  0.34698777     0.06300
H2148       H  0.84858390  0.46978334  0.33333848     0.09700
Br2149     Br  0.83075745  0.43783309  0.33774874    -0.05800
Br2150     Br  0.79739216  0.45948887  0.31563626    -0.02800
Br2151     Br  0.82659734  0.47455310  0.35979275     0.00100
Br2152     Br  0.84025231  0.45695431  0.32027882    -0.04300
C2153       C  0.77467833  0.37748197  0.32557354    -0.11700
C2154       C  0.76628328  0.37304911  0.32746458     0.03800
C2155       C  0.76611714  0.36569128  0.33357857    -0.12200
C2156       C  0.77423169  0.36264628  0.33774905     0.18600
C2157       C  0.78266329  0.36667496  0.33537726    -0.09300
C2158       C  0.78282729  0.37406609  0.32938591    -0.02200
H2159       H  0.75959804  0.36265301  0.33545141     0.05200
C2160       C  0.77374767  0.35628807  0.34552815     0.20600
H2161       H  0.78933009  0.37735648  0.32792505     0.10300
C2162       C  0.77462037  0.34687775  0.34412257    -0.15600
C2163       C  0.77531994  0.34089624  0.35157044     0.03300
C2164       C  0.77518817  0.34438709  0.36055794    -0.10900
C2165       C  0.77406547  0.35378808  0.36188632    -0.00900
C2166       C  0.77330197  0.35971370  0.35447961    -0.06100
H2167       H  0.77508630  0.34423036  0.33723469     0.06300
H2168       H  0.77389062  0.35656265  0.36873821     0.09700
Br2169     Br  0.79404280  0.36269366  0.34067048    -0.05800
Br2170     Br  0.75476900  0.37735171  0.32275492    -0.02800
Br2171     Br  0.77731440  0.32822310  0.34903480     0.00100
Br2172     Br  0.77203773  0.37251081  0.35689856    -0.04300
C2173       C  0.73409746  0.42031493  0.22451928    -0.11700
C2174       C  0.74348500  0.41796682  0.22516688     0.03800
C2175       C  0.74803900  0.41872531  0.23353311    -0.12200
C2176       C  0.74342996  0.42188434  0.24132231     0.18600
C2177       C  0.73423058  0.42480484  0.24054555    -0.09300
C2178       C  0.72963294  0.42396748  0.23219325    -0.02200
H2179       H  0.75518911  0.41670469  0.23400126     0.05200
C2180       C  0.74831926  0.42182662  0.25018622     0.20600
H2181       H  0.72247371  0.42595791  0.23176149     0.10300
C2182       C  0.75619018  0.42722252  0.25130874    -0.15600
C2183       C  0.76138266  0.42682621  0.25936206     0.03300
C2184       C  0.75855968  0.42107915  0.26661340    -0.10900
C2185       C  0.75063709  0.41570924  0.26541046    -0.00900
C2186       C  0.74567155  0.41588659  0.25725805    -0.06100
H2187       H  0.75845632  0.43157438  0.24576650     0.06300
H2188       H  0.74835216  0.41116158  0.27077172     0.09700
Br2189     Br  0.72770793  0.43005413  0.25065596    -0.05800
Br2190     Br  0.75058821  0.41414663  0.21479344    -0.02800
Br2191     Br  0.77268358  0.43355854  0.25944942     0.00100
Br2192     Br  0.73582596  0.40728432  0.25585122    -0.04300
C2193       C  0.71577004  0.37385896  0.16889168    -0.11700
C2194       C  0.70921809  0.36685879  0.16818639     0.03800
C2195       C  0.71049544  0.35985264  0.16185651    -0.12200
C2196       C  0.71830846  0.35966380  0.15623470     0.18600
C2197       C  0.72513717  0.36638533  0.15733917    -0.09300
C2198       C  0.72383620  0.37341446  0.16366595    -0.02200
H2199       H  0.70522191  0.35470102  0.16109864     0.05200
C2200       C  0.71865768  0.35301920  0.14865276     0.20600
H2201       H  0.72895182  0.37874438  0.16423846     0.10300
C2202       C  0.71806447  0.35627843  0.13966770    -0.15600
C2203       C  0.71739770  0.35027387  0.13230273     0.03300
C2204       C  0.71724172  0.34078360  0.13388146    -0.10900
C2205       C  0.71817451  0.33751337  0.14284525    -0.00900
C2206       C  0.71881292  0.34354717  0.15021921    -0.06100
H2207       H  0.71794855  0.36355399  0.13839227     0.06300
H2208       H  0.71812749  0.33024353  0.14414401     0.09700
Br2209     Br  0.73624723  0.36631403  0.15026977    -0.05800
Br2210     Br  0.69846513  0.36658901  0.17576766    -0.02800
Br2211     Br  0.71712140  0.35547051  0.12026297     0.00100
Br2212     Br  0.71987429  0.33855731  0.16228466    -0.04300
C2213       C  0.76477770  0.24002799  0.09723102    -0.11700
C2214       C  0.76461338  0.24704530  0.10378428     0.03800
C2215       C  0.75872367  0.25448053  0.10263287    -0.12200
C2216       C  0.75281081  0.25504255  0.09508162     0.18600
C2217       C  0.75320912  0.24818690  0.08834287    -0.09300
C2218       C  0.75921065  0.24077802  0.08943770    -0.02200
H2219       H  0.75869018  0.25983890  0.10771829     0.05200
C2220       C  0.74637430  0.26288069  0.09448970     0.20600
H2221       H  0.75929733  0.23542698  0.08434641     0.10300
C2222       C  0.74719009  0.26916634  0.08729498    -0.15600
C2223       C  0.74190460  0.27716134  0.08714965     0.03300
C2224       C  0.73587853  0.27909986  0.09445271    -0.10900
C2225       C  0.73487988  0.27268476  0.10149392    -0.00900
C2226       C  0.73993002  0.26457724  0.10148340    -0.06100
H2227       H  0.75215531  0.26798173  0.08190935     0.06300
H2228       H  0.73013140  0.27398863  0.10704412     0.09700
Br2229     Br  0.74535285  0.24834157  0.07782793    -0.05800
Br2230     Br  0.77255910  0.24702269  0.11424217    -0.02800
Br2231     Br  0.74374867  0.28546330  0.07718743     0.00100
Br2232     Br  0.73764116  0.25595655  0.11109519    -0.04300
C2233       C  0.78276645  0.18068889  0.13990508    -0.11700
C2234       C  0.78992599  0.17887360  0.14611564     0.03800
C2235       C  0.78886841  0.17204417  0.15269535    -0.12200
C2236       C  0.78073791  0.16695643  0.15316755     0.18600
C2237       C  0.77336420  0.16914228  0.14734670    -0.09300
C2238       C  0.77439785  0.17602049  0.14078663    -0.02200
H2239       H  0.79454123  0.17043928  0.15720963     0.05200
C2240       C  0.78053229  0.15873090  0.15896062     0.20600
H2241       H  0.76884032  0.17738671  0.13605936     0.10300
C2242       C  0.77845601  0.15942056  0.16828215    -0.15600
C2243       C  0.77878499  0.15171592  0.17395968     0.03300
C2244       C  0.78116376  0.14313400  0.17024308    -0.10900
C2245       C  0.78315862  0.14253430  0.16086835    -0.00900
C2246       C  0.78292770  0.15022107  0.15527034    -0.06100
H2247       H  0.77679093  0.16600903  0.17118042     0.06300
H2248       H  0.78501691  0.13604890  0.15785920     0.09700
Br2249     Br  0.76201369  0.16251875  0.14780798    -0.05800
Br2250     Br  0.80126753  0.18553079  0.14584519    -0.02800
Br2251     Br  0.77678217  0.15359745  0.18677091     0.00100
Br2252     Br  0.78632167  0.14884616  0.14267273    -0.04300
C2253       C  0.76358515  0.09810644  0.22831140    -0.11700
C2254       C  0.76732323  0.09381508  0.23615388     0.03800
C2255       C  0.76232283  0.09368394  0.24435185    -0.12200
C2256       C  0.75366998  0.09784939  0.24501493     0.18600
C2257       C  0.74991998  0.10208979  0.23724097    -0.09300
C2258       C  0.75479293  0.10207203  0.22900318    -0.02200
H2259       H  0.76535107  0.09059050  0.25036179     0.05200
C2260       C  0.74912560  0.09856215  0.25406380     0.20600
H2261       H  0.75175044  0.10542647  0.22315190     0.10300
C2262       C  0.75325747  0.10389994  0.26084350    -0.15600
C2263       C  0.74898935  0.10526989  0.26930318     0.03300
C2264       C  0.74023824  0.10142943  0.27104512    -0.10900
C2265       C  0.73633153  0.09571529  0.26437381    -0.00900
C2266       C  0.74073957  0.09418506  0.25600015    -0.06100
H2267       H  0.75985940  0.10705524  0.25952535     0.06300
H2268       H  0.72974243  0.09251049  0.26559338     0.09700
Br2269     Br  0.73854411  0.10871987  0.23770615    -0.05800
Br2270     Br  0.77952443  0.08887013  0.23663839    -0.02800
Br2271     Br  0.75590356  0.11185072  0.27830075     0.00100
Br2272     Br  0.73518607  0.08588645  0.24752258    -0.04300
C2273       C  0.73409633  0.24225062  0.40361027    -0.11700
C2274       C  0.72928130  0.25051100  0.40493497     0.03800
C2275       C  0.73407425  0.25880133  0.40504750    -0.12200
C2276       C  0.74363437  0.25902711  0.40385035     0.18600
C2277       C  0.74846077  0.25079236  0.40271117    -0.09300
C2278       C  0.74368779  0.24251497  0.40252797    -0.02200
H2279       H  0.73030446  0.26512180  0.40583873     0.05200
C2280       C  0.74843056  0.26791574  0.40338579     0.20600
H2281       H  0.74749318  0.23624369  0.40153461     0.10300
C2282       C  0.75073415  0.27249902  0.41145803    -0.15600
C2283       C  0.75545086  0.28083911  0.41120455     0.03300
C2284       C  0.75806614  0.28467619  0.40271695    -0.10900
C2285       C  0.75552940  0.28010852  0.39465168    -0.00900
C2286       C  0.75072799  0.27185701  0.39493425    -0.06100
H2287       H  0.74880006  0.26959466  0.41798592     0.06300
H2288       H  0.75735822  0.28290844  0.38805486     0.09700
Br2289     Br  0.76157393  0.25056709  0.40135797    -0.05800
Br2290     Br  0.71613066  0.25100719  0.40580607    -0.02800
Br2291     Br  0.75739292  0.28689379  0.42264572     0.00100
Br2292     Br  0.74731461  0.26625327  0.38359678    -0.04300
C2293       C  0.72006088  0.18042124  0.36329934    -0.11700
C2294       C  0.71267762  0.17754825  0.35776710     0.03800
C2295       C  0.71417838  0.17116150  0.35085389    -0.12200
C2296       C  0.72296079  0.16757054  0.34929346     0.18600
C2297       C  0.73043762  0.17078847  0.35445203    -0.09300
C2298       C  0.72895753  0.17720750  0.36138747    -0.02200
H2299       H  0.70841810  0.16881127  0.34680710     0.05200
C2300       C  0.72390420  0.15998110  0.34273973     0.20600
H2301       H  0.73470653  0.17942066  0.36552158     0.10300
C2302       C  0.72402659  0.16179328  0.33333499    -0.15600
C2303       C  0.72346762  0.15467773  0.32696977     0.03300
C2304       C  0.72261704  0.14558842  0.33004095    -0.10900
C2305       C  0.72281977  0.14381197  0.33946442    -0.00900
C2306       C  0.72350717  0.15089863  0.34578836    -0.06100
H2307       H  0.72421965  0.16878371  0.33095223     0.06300
H2308       H  0.72223055  0.13687353  0.34193544     0.09700
Br2309     Br  0.74267337  0.16638319  0.35240132    -0.05800
Br2310     Br  0.70046356  0.18232905  0.35910689    -0.02800
Br2311     Br  0.72297193  0.15788606  0.31427723     0.00100
Br2312     Br  0.72331677  0.14789742  0.35854761    -0.04300
C2313       C  0.07061474  0.00835532  0.92078309    -0.11700
C2314       C  0.08004129  0.00681819  0.92251926     0.03800
C2315       C  0.08632533  0.00667590  0.91526967    -0.12200
C2316       C  0.08342814  0.00815242  0.90625304     0.18600
C2317       C  0.07404039  0.00972268  0.90451506    -0.09300
C2318       C  0.06773802  0.00984613  0.91174879    -0.02200
H2319       H  0.09355031  0.00557491  0.91668492     0.05200
C2320       C  0.09033634  0.00827436  0.89879966     0.20600
H2321       H  0.06054681  0.01111375  0.91030504     0.10300
C2322       C  0.09045611  0.00121934  0.89234863    -0.15600
C2323       C  0.09689601  0.00114969  0.88521965     0.03300
C2324       C  0.10350674  0.00819453  0.88453966    -0.10900
C2325       C  0.10326386  0.01530460  0.89096659    -0.00900
C2326       C  0.09677655  0.01538680  0.89803274    -0.06100
H2327       H  0.08543495  0.99578843  0.89280943     0.06300
H2328       H  0.10820898  0.02080252  0.89056058     0.09700
Br2329     Br  0.06957318  0.01211190  0.89242582    -0.05800
Br2330     Br  0.08488797  0.00567620  0.93466494    -0.02800
Br2331     Br  0.09573094  0.99164901  0.87629341     0.00100
Br2332     Br  0.09678481  0.02551045  0.90631835    -0.04300
C2333       C  0.01315303  0.06094887  0.93663609    -0.11700
C2334       C  0.02181869  0.06182255  0.93232913     0.03800
C2335       C  0.02776940  0.05432294  0.93193271    -0.12200
C2336       C  0.02530720  0.04595239  0.93584832     0.18600
C2337       C  0.01675848  0.04509385  0.94023347    -0.09300
C2338       C  0.01077019  0.05253456  0.94058747    -0.02200
H2339       H  0.03443540  0.05506546  0.92871323     0.05200
C2340       C  0.03191083  0.03830471  0.93566710     0.20600
H2341       H  0.00417467  0.05169895  0.94392178     0.10300
C2342       C  0.03689277  0.03624524  0.94358865    -0.15600
C2343       C  0.04324972  0.02909045  0.94369789     0.03300
C2344       C  0.04472466  0.02386200  0.93573754    -0.10900
C2345       C  0.03976553  0.02599736  0.92778164    -0.00900
C2346       C  0.03335154  0.03311847  0.92771990    -0.06100
H2347       H  0.03587392  0.04028415  0.94969912     0.06300
H2348       H  0.04078978  0.02202861  0.92162706     0.09700
Br2349     Br  0.01294619  0.03384621  0.94574195    -0.05800
Br2350     Br  0.02629598  0.07317067  0.92752051    -0.02800
Br2351     Br  0.05012382  0.02722792  0.95473006     0.00100
Br2352     Br  0.02651350  0.03538152  0.91675180    -0.04300
C2353       C  0.99905436  0.08847308  0.92350319    -0.11700
C2354       C  0.99765417  0.08613185  0.91426616     0.03800
C2355       C  0.99797736  0.09289272  0.90749399    -0.12200
C2356       C  0.99978360  0.10200631  0.90977422     0.18600
C2357       C  0.00121147  0.10432351  0.91900362    -0.09300
C2358       C  0.00075570  0.09759636  0.92577898    -0.02200
H2359       H  0.99675771  0.09105211  0.90043524     0.05200
C2360       C  0.99980540  0.10909727  0.90254177     0.20600
H2361       H  0.00198891  0.09945571  0.93283106     0.10300
C2362       C  0.99265062  0.11549117  0.90232372    -0.15600
C2363       C  0.99265533  0.12266579  0.89601370     0.03300
C2364       C  0.99985704  0.12343669  0.88956104    -0.10900
C2365       C  0.00698398  0.11694243  0.88974718    -0.00900
C2366       C  0.00700954  0.10983407  0.89616080    -0.06100
H2367       H  0.98715907  0.11505371  0.90730824     0.06300
H2368       H  0.01262593  0.11745231  0.88494256     0.09700
Br2369     Br  0.00422801  0.11652426  0.92261759    -0.05800
Br2370     Br  0.99485386  0.07388383  0.91063178    -0.02800
Br2371     Br  0.98316195  0.13165184  0.89737656     0.00100
Br2372     Br  0.01726140  0.10160223  0.89629604    -0.04300
C2373       C  0.83815457  0.16553335  0.03669872    -0.11700
C2374       C  0.84304477  0.16975843  0.04388889     0.03800
C2375       C  0.83824368  0.17395821  0.05105141    -0.12200
C2376       C  0.82860646  0.17423342  0.05114241     0.18600
C2377       C  0.82373131  0.17037540  0.04380937    -0.09300
C2378       C  0.82848576  0.16597253  0.03678257    -0.02200
H2379       H  0.84205703  0.17715824  0.05652958     0.05200
C2380       C  0.82378781  0.17885275  0.05877224     0.20600
H2381       H  0.82455314  0.16293868  0.03130091     0.10300
C2382       C  0.82488534  0.18828008  0.05995716    -0.15600
C2383       C  0.82034989  0.19289632  0.06702305     0.03300
C2384       C  0.81452085  0.18805998  0.07302473    -0.10900
C2385       C  0.81365005  0.17858097  0.07196980    -0.00900
C2386       C  0.81825324  0.17396824  0.06497196    -0.06100
H2387       H  0.82931889  0.19205993  0.05537029     0.06300
H2388       H  0.80931513  0.17472611  0.07658303     0.09700
Br2389     Br  0.81061235  0.17141330  0.04278283    -0.05800
Br2390     Br  0.85618082  0.17088117  0.04400274    -0.02800
Br2391     Br  0.82296076  0.20562383  0.06853653     0.00100
Br2392     Br  0.81703859  0.16095214  0.06439750    -0.04300
C2393       C  0.95284156  0.07371448  0.98741545    -0.11700
C2394       C  0.95479938  0.08178699  0.98237301     0.03800
C2395       C  0.96185338  0.08185756  0.97587691    -0.12200
C2396       C  0.96689745  0.07400377  0.97382564     0.18600
C2397       C  0.96502758  0.06595236  0.97874584    -0.09300
C2398       C  0.95815779  0.06588919  0.98549903    -0.02200
H2399       H  0.96331213  0.08811786  0.97221646     0.05200
C2400       C  0.97395406  0.07445033  0.96645032     0.20600
H2401       H  0.95683487  0.05957197  0.98909702     0.10300
C2402       C  0.98323160  0.07280639  0.96851803    -0.15600
C2403       C  0.99005656  0.07346581  0.96177316     0.03300
C2404       C  0.98766317  0.07589949  0.95272979    -0.10900
C2405       C  0.97841815  0.07777161  0.95073973    -0.00900
C2406       C  0.97160087  0.07701636  0.95745118    -0.06100
H2407       H  0.98518908  0.07109334  0.97544909     0.06300
H2408       H  0.97642083  0.07956197  0.94383944     0.09700
Br2409     Br  0.97126953  0.05472368  0.97613571    -0.05800
Br2410     Br  0.94827798  0.09311042  0.98352287    -0.02800
Br2411     Br  0.00255814  0.07146786  0.96548002     0.00100
Br2412     Br  0.95911266  0.07915212  0.95380080    -0.04300
C2413       C  0.89149257  0.12222716  0.00260859    -0.11700
C2414       C  0.89861986  0.12185759  0.99605260     0.03800
C2415       C  0.90491272  0.11462507  0.99615273    -0.12200
C2416       C  0.90447022  0.10780490  0.00286153     0.18600
C2417       C  0.89780554  0.10853468  0.00981446    -0.09300
C2418       C  0.89132446  0.11560969  0.00956783    -0.02200
H2419       H  0.91027087  0.11437574  0.99101469     0.05200
C2420       C  0.91135453  0.10031413  0.00270074     0.20600
H2421       H  0.88609155  0.11588833  0.01482343     0.10300
C2422       C  0.92068533  0.10246169  0.00379593    -0.15600
C2423       C  0.92744939  0.09567801  0.00343828     0.03300
C2424       C  0.92494244  0.08653078  0.00187708    -0.10900
C2425       C  0.91560539  0.08435032  0.00087957    -0.00900
C2426       C  0.90883655  0.09115245  0.00116507    -0.06100
H2427       H  0.92270781  0.10945852  0.00502265     0.06300
H2428       H  0.91358944  0.07735402  0.99963840     0.09700
Br2429     Br  0.89760345  0.10035989  0.02005517    -0.05800
Br2430     Br  0.90071572  0.13142478  0.98734566    -0.02800
Br2431     Br  0.93990865  0.09921023  0.00580216     0.00100
Br2432     Br  0.89634590  0.08763816  0.99887765    -0.04300
C2433       C  0.84643515  0.04624759  0.15579955    -0.11700
C2434       C  0.84617351  0.04752162  0.16536052     0.03800
C2435       C  0.84089617  0.05454542  0.16909864    -0.12200
C2436       C  0.83588637  0.06045721  0.16348479     0.18600
C2437       C  0.83668915  0.05967327  0.15392934    -0.09300
C2438       C  0.84195242  0.05259395  0.15014609    -0.02200
H2439       H  0.84049740  0.05525923  0.17645227     0.05200
C2440       C  0.82942542  0.06693980  0.16781476     0.20600
H2441       H  0.84213732  0.05176791  0.14279906     0.10300
C2442       C  0.83185282  0.07612899  0.16872597    -0.15600
C2443       C  0.82602297  0.08227218  0.17322841     0.03300
C2444       C  0.81753063  0.07923151  0.17684502    -0.10900
C2445       C  0.81522042  0.06998084  0.17603129    -0.00900
C2446       C  0.82106819  0.06386645  0.17156150    -0.06100
H2447       H  0.83838454  0.07848761  0.16607019     0.06300
H2448       H  0.80874436  0.06751546  0.17871709     0.09700
Br2449     Br  0.83024449  0.06774339  0.14585256    -0.05800
Br2450     Br  0.85301299  0.04002972  0.17370155    -0.02800
Br2451     Br  0.83042857  0.09450014  0.17481986     0.00100
Br2452     Br  0.81728537  0.05138083  0.17057241    -0.04300
C2453       C  0.93516549  0.01910728  0.04332626    -0.11700
C2454       C  0.92721108  0.02188777  0.03852632     0.03800
C2455       C  0.92772873  0.02909385  0.03223337    -0.12200
C2456       C  0.93605782  0.03363989  0.03059753     0.18600
C2457       C  0.94395145  0.03094506  0.03545573    -0.09300
C2458       C  0.94348339  0.02368849  0.04164195    -0.02200
H2459       H  0.92160009  0.03115820  0.02857372     0.05200
C2460       C  0.93628487  0.04147784  0.02417604     0.20600
H2461       H  0.94963561  0.02178035  0.04534640     0.10300
C2462       C  0.93195665  0.04961491  0.02669586    -0.15600
C2463       C  0.93228314  0.05733288  0.02106368     0.03300
C2464       C  0.93703788  0.05700587  0.01258240    -0.10900
C2465       C  0.94128718  0.04874741  0.01006212    -0.00900
C2466       C  0.94087657  0.04103295  0.01572004    -0.06100
H2467       H  0.92842581  0.05001176  0.03320472     0.06300
H2468       H  0.94485396  0.04822248  0.00358772     0.09700
Br2469     Br  0.95541128  0.03730602  0.03428130    -0.05800
Br2470     Br  0.91556835  0.01588218  0.03989485    -0.02800
Br2471     Br  0.92645490  0.06808881  0.02584030     0.00100
Br2472     Br  0.94642575  0.02993954  0.01150016    -0.04300
C2473       C  0.92066601  0.00367692  0.06971260    -0.11700
C2474       C  0.91950164  0.99620996  0.07580308     0.03800
C2475       C  0.91257500  0.99647427  0.08246284    -0.12200
C2476       C  0.90664753  0.00395928  0.08317021     0.18600
C2477       C  0.90751466  0.01119237  0.07694710    -0.09300
C2478       C  0.91443384  0.01101329  0.07031946    -0.02200
H2479       H  0.91185450  0.99083245  0.08719230     0.05200
C2480       C  0.89991082  0.00436079  0.09072987     0.20600
H2481       H  0.91502175  0.01678513  0.06574206     0.10300
C2482       C  0.90193655  0.00970398  0.09839293    -0.15600
C2483       C  0.89570716  0.01043371  0.10563965     0.03300
C2484       C  0.88722094  0.00578755  0.10526374    -0.10900
C2485       C  0.88530214  0.00026095  0.09766403    -0.00900
C2486       C  0.89155359  0.99955659  0.09040901    -0.06100
H2487       H  0.90843308  0.01329134  0.09874836     0.06300
H2488       H  0.87884213  0.99661532  0.09728997     0.09700
Br2489     Br  0.89939218  0.02149062  0.07729320    -0.05800
Br2490     Br  0.92675039  0.98525634  0.07541916    -0.02800
Br2491     Br  0.89949510  0.01733267  0.11610783     0.00100
Br2492     Br  0.88831970  0.99220505  0.08008033    -0.04300
C2493       C  0.06242653  0.96356470  0.98527772    -0.11700
C2494       C  0.07028547  0.96799841  0.98169361     0.03800
C2495       C  0.06928114  0.97479183  0.97502740    -0.12200
C2496       C  0.06055990  0.97744228  0.97196167     0.18600
C2497       C  0.05271937  0.97338252  0.97580963    -0.09300
C2498       C  0.05368572  0.96650273  0.98236209    -0.02200
H2499       H  0.07534296  0.97803559  0.97220946     0.05200
C2500       C  0.05977000  0.98415243  0.96445899     0.20600
H2501       H  0.04753766  0.96335761  0.98508751     0.10300
C2502       C  0.05830452  0.98099083  0.95554578    -0.15600
C2503       C  0.05763834  0.98708795  0.94822139     0.03300
C2504       C  0.05835011  0.99653639  0.94978310    -0.10900
C2505       C  0.05965459  0.99970942  0.95873264    -0.00900
C2506       C  0.06046821  0.99358774  0.96604025    -0.06100
H2507       H  0.05769289  0.97373969  0.95428935     0.06300
H2508       H  0.06023010  0.00695888  0.96001253     0.09700
Br2509     Br  0.04056491  0.97711420  0.97235913    -0.05800
Br2510     Br  0.08252384  0.96564121  0.98598291    -0.02800
Br2511     Br  0.05532911  0.98219815  0.93629343     0.00100
Br2512     Br  0.06253803  0.99836568  0.97804546    -0.04300
C2513       C  0.07847982  0.93641118  0.99796007    -0.11700
C2514       C  0.08421594  0.93492433  0.99025225     0.03800
C2515       C  0.09144486  0.92860085  0.99072701    -0.12200
C2516       C  0.09306039  0.92344895  0.99864684     0.18600
C2517       C  0.08743875  0.92495578  0.00634042    -0.09300
C2518       C  0.08029382  0.93136422  0.00595385    -0.02200
H2519       H  0.09572748  0.92752696  0.98476601     0.05200
C2520       C  0.10045731  0.91639149  0.99864035     0.20600
H2521       H  0.07607405  0.93232878  0.01197288     0.10300
C2522       C  0.10783136  0.91709135  0.00479066    -0.15600
C2523       C  0.11480328  0.91047599  0.00503743     0.03300
C2524       C  0.11465949  0.90310611  0.99883368    -0.10900
C2525       C  0.10738588  0.90251230  0.99256782    -0.00900
C2526       C  0.10026326  0.90895657  0.99253220    -0.06100
H2527       H  0.10814573  0.92280717  0.00945722     0.06300
H2528       H  0.10708712  0.89683531  0.98785286     0.09700
Br2529     Br  0.08888030  0.91809357  0.01741317    -0.05800
Br2530     Br  0.08231297  0.94061446  0.97857969    -0.02800
Br2531     Br  0.12451980  0.91210749  0.01373840     0.00100
Br2532     Br  0.09011631  0.90693502  0.98441721    -0.04300
C2533       C  0.98654896  0.96033705  0.05897261    -0.11700
C2534       C  0.97717383  0.95810613  0.05810023     0.03800
C2535       C  0.97053614  0.96499195  0.05814910    -0.12200
C2536       C  0.97308657  0.97415661  0.05892313     0.18600
C2537       C  0.98244753  0.97644555  0.05962983    -0.09300
C2538       C  0.98911333  0.96954210  0.05963232    -0.02200
H2539       H  0.96335079  0.96321064  0.05740110     0.05200
C2540       C  0.96583980  0.98119241  0.05864013     0.20600
H2541       H  0.99630592  0.97135515  0.06019963     0.10300
C2542       C  0.96236337  0.98474371  0.06682516    -0.15600
C2543       C  0.95505770  0.99096944  0.06677167     0.03300
C2544       C  0.95110404  0.99369732  0.05838652    -0.10900
C2545       C  0.95479233  0.99028166  0.05020318    -0.00900
C2546       C  0.96205435  0.98404457  0.05028531    -0.06100
H2547       H  0.96531137  0.98261214  0.07327742     0.06300
H2548       H  0.95187525  0.99230731  0.04370405     0.09700
Br2549     Br  0.98637414  0.98889477  0.06039650    -0.05800
Br2550     Br  0.97309365  0.94589412  0.05596755    -0.02800
Br2551     Br  0.95116047  0.99584260  0.07830593     0.00100
Br2552     Br  0.96654260  0.97949854  0.03883907    -0.04300
C2553       C  0.04883950  0.94675839  0.01099934    -0.11700
C2554       C  0.03947586  0.94819276  0.00883959     0.03800
C2555       C  0.03283533  0.94812727  0.01577102    -0.12200
C2556       C  0.03532457  0.94663439  0.02488927     0.18600
C2557       C  0.04459878  0.94495392  0.02703986    -0.09300
C2558       C  0.05125986  0.94497883  0.02011882    -0.02200
H2559       H  0.02568317  0.94925419  0.01404542     0.05200
C2560       C  0.02812432  0.94676155  0.03203995     0.20600
H2561       H  0.05839577  0.94387129  0.02191749     0.10300
C2562       C  0.02362185  0.93863781  0.03434189    -0.15600
C2563       C  0.01669603  0.93852775  0.04099494     0.03300
C2564       C  0.01428466  0.94663680  0.04560192    -0.10900
C2565       C  0.01865600  0.95481183  0.04311057    -0.00900
C2566       C  0.02550576  0.95492174  0.03637282    -0.06100
H2567       H  0.02541159  0.93238017  0.03083946     0.06300
H2568       H  0.01678395  0.96112772  0.04646219     0.09700
Br2569     Br  0.04847130  0.94282158  0.03937084    -0.05800
Br2570     Br  0.03523863  0.94978829  0.99652717    -0.02800
Br2571     Br  0.01020466  0.92730067  0.04289158     0.00100
Br2572     Br  0.03105840  0.96635188  0.03321100    -0.04300
C2573       C  0.00326457  0.90355025  0.11193882    -0.11700
C2574       C  0.00809555  0.90180312  0.10375529     0.03800
C2575       C  0.00801000  0.90822746  0.09667481    -0.12200
C2576       C  0.00326518  0.91649901  0.09758727     0.18600
C2577       C  0.99862999  0.91836345  0.10583585     0.12300
C2578       C  0.99857677  0.91187477  0.11288027    -0.02200
H2579       H  0.01147707  0.90666120  0.09031517     0.05200
C2580       C  0.00265263  0.92273068  0.08960926     0.20600
H2581       H  0.99490658  0.91335867  0.11914570     0.10300
C2582       C  0.99415384  0.92385003  0.08524646    -0.15600
C2583       C  0.99329472  0.92935662  0.07748101     0.03300
C2584       C  0.00104173  0.93395209  0.07392834    -0.10900
C2585       C  0.00959402  0.93267841  0.07821175    -0.00900
C2586       C  0.01044129  0.92714372  0.08598082    -0.06100
H2587       H  0.98817068  0.92027511  0.08781701     0.06300
H2588       H  0.01562513  0.93615041  0.07561652     0.09700
Br2589     Br  0.99249789  0.92977235  0.10784947    -0.05800
Br2590     Br  0.01428126  0.89047314  0.10149653    -0.02800
Br2591     Br  0.98151742  0.92966839  0.07168260     0.00100
Br2592     Br  0.02230106  0.92607085  0.09158403    -0.04300
C2593       C  0.18395744  0.69685272  0.56716812    -0.11700
C2594       C  0.18539723  0.69691896  0.55763982     0.03800
C2595       C  0.17881590  0.69304467  0.55185707    -0.12200
C2596       C  0.17076572  0.68913297  0.55540850     0.18600
C2597       C  0.16919943  0.68932692  0.56487356    -0.09300
C2598       C  0.17577937  0.69313434  0.57066132    -0.02200
H2599       H  0.18008980  0.69285469  0.54456891     0.05200
C2600       C  0.16430448  0.68453533  0.54915289     0.20600
H2601       H  0.17455177  0.69308569  0.57795940     0.10300
C2602       C  0.16363413  0.67498940  0.54930810    -0.15600
C2603       C  0.15821660  0.67035858  0.54291389     0.03300
C2604       C  0.15335727  0.67534222  0.53623237    -0.10900
C2605       C  0.15381077  0.68491025  0.53632405    -0.00900
C2606       C  0.15921398  0.68950836  0.54269991    -0.06100
H2607       H  0.16760933  0.67111747  0.55421952     0.06300
H2608       H  0.15011176  0.68883485  0.53124378     0.09700
Br2609     Br  0.15816601  0.68450651  0.57017881    -0.05800
Br2610     Br  0.19651561  0.70137682  0.55217720    -0.02800
Br2611     Br  0.15854370  0.65728693  0.54307880     0.00100
Br2612     Br  0.15952273  0.70257570  0.54227394    -0.04300
C2613       C  0.19402827  0.57705588  0.66845013    -0.11700
C2614       C  0.19368823  0.57684049  0.65878676     0.03800
C2615       C  0.18843518  0.57020864  0.65433737    -0.12200
C2616       C  0.18350161  0.56370193  0.65931841     0.18600
C2617       C  0.18399573  0.56374538  0.66892040    -0.09300
C2618       C  0.18924376  0.57037413  0.67341029    -0.02200
H2619       H  0.18825836  0.57007051  0.64694213     0.05200
C2620       C  0.17818643  0.55667620  0.65437846     0.20600
H2621       H  0.18945660  0.57040071  0.68080335     0.10300
C2622       C  0.18276549  0.54898466  0.65100270    -0.15600
C2623       C  0.17789693  0.54191850  0.64679470     0.03300
C2624       C  0.16823391  0.54246991  0.64595469    -0.10900
C2625       C  0.16373833  0.55042178  0.64890259    -0.00900
C2626       C  0.16863729  0.55749097  0.65309129    -0.06100
H2627       H  0.19015357  0.54842973  0.65175246     0.06300
H2628       H  0.15634514  0.55100664  0.64825861     0.09700
Br2629     Br  0.17766184  0.55481464  0.67612856    -0.05800
Br2630     Br  0.20075259  0.58491197  0.65119845    -0.02800
Br2631     Br  0.18488597  0.53190447  0.64199497     0.00100
Br2632     Br  0.16202532  0.56806852  0.65709666    -0.04300
C2633       C  0.21784145  0.64585933  0.66394918    -0.11700
C2634       C  0.20986348  0.64967665  0.65998884     0.03800
C2635       C  0.21066254  0.65686219  0.65378865    -0.12200
C2636       C  0.21928647  0.66038526  0.65147546     0.18600
C2637       C  0.22721452  0.65691920  0.65572136    -0.09300
C2638       C  0.22645246  0.64970550  0.66193589    -0.02200
H2639       H  0.20453047  0.65963413  0.65063613     0.05200
C2640       C  0.21980949  0.66734457  0.64425140     0.20600
H2641       H  0.23262892  0.64690900  0.66496938     0.10300
C2642       C  0.21764453  0.67641793  0.64631509    -0.15600
C2643       C  0.21721845  0.68299697  0.63940496     0.03300
C2644       C  0.21891885  0.68046420  0.63027003    -0.10900
C2645       C  0.22113090  0.67137759  0.62824745    -0.00900
C2646       C  0.22162695  0.66483694  0.63516232    -0.06100
H2647       H  0.21605516  0.67832552  0.65328560     0.06300
H2648       H  0.22239083  0.66934579  0.62124544     0.09700
Br2649     Br  0.23917009  0.66173461  0.65305716    -0.05800
Br2650     Br  0.19765117  0.64573613  0.66303448    -0.02800
Br2651     Br  0.21344282  0.69508381  0.64271863     0.00100
Br2652     Br  0.22441894  0.65248185  0.63186607    -0.04300
C2653       C  0.26664430  0.78244868  0.59013113    -0.11700
C2654       C  0.27051669  0.77372850  0.58877502     0.03800
C2655       C  0.26482050  0.76602997  0.58863410    -0.12200
C2656       C  0.25527613  0.76686969  0.58974925     0.18600
C2657       C  0.25138574  0.77561371  0.59066373    -0.09300
C2658       C  0.25706150  0.78327900  0.59090344    -0.02200
H2659       H  0.26788575  0.75932593  0.58803785     0.05200
C2660       C  0.24958024  0.75858739  0.59089258     0.20600
H2661       H  0.25397240  0.78993294  0.59184776     0.10300
C2662       C  0.24528650  0.75707633  0.59934090    -0.15600
C2663       C  0.23959431  0.74953713  0.60072690     0.03300
C2664       C  0.23815783  0.74327326  0.59356746    -0.10900
C2665       C  0.24256215  0.74471553  0.58514551    -0.00900
C2666       C  0.24830822  0.75224954  0.58379127    -0.06100
H2667       H  0.24626789  0.76189150  0.60486132     0.06300
H2668       H  0.24156527  0.73993079  0.57960291     0.09700
Br2669     Br  0.23835498  0.77743980  0.59169777    -0.05800
Br2670     Br  0.28353143  0.77176122  0.58805498    -0.02800
Br2671     Br  0.23346146  0.74862258  0.61230431     0.00100
Br2672     Br  0.25403429  0.75370989  0.57207771    -0.04300
C2673       C  0.27767637  0.84536609  0.62925790    -0.11700
C2674       C  0.27744297  0.85481440  0.62751473     0.03800
C2675       C  0.27642215  0.86091490  0.63475140    -0.12200
C2676       C  0.27554387  0.85774165  0.64373690     0.18600
C2677       C  0.27513689  0.84831688  0.64542499    -0.09300
C2678       C  0.27619154  0.84218428  0.63818273    -0.02200
H2679       H  0.27651605  0.86817734  0.63340057     0.05200
C2680       C  0.27562379  0.86442457  0.65123171     0.20600
H2681       H  0.27629211  0.83493487  0.63958823     0.10300
C2682       C  0.26736943  0.86689966  0.65549550    -0.15600
C2683       C  0.26714835  0.87398559  0.66189288     0.03300
C2684       C  0.27532225  0.87870702  0.66404225    -0.10900
C2685       C  0.28362164  0.87592561  0.66001081    -0.00900
C2686       C  0.28382669  0.86884226  0.65367611    -0.06100
H2687       H  0.26103313  0.86353326  0.65358287     0.06300
H2688       H  0.28996651  0.87942337  0.66164502     0.09700
Br2689     Br  0.27373266  0.84358637  0.65755518    -0.05800
Br2690     Br  0.27821162  0.85974277  0.61538464    -0.02800
Br2691     Br  0.25536691  0.87743387  0.66666327     0.00100
Br2692     Br  0.29543694  0.86555116  0.64837647    -0.04300
C2693       C  0.19097411  0.83427465  0.92875145    -0.11700
C2694       C  0.18652078  0.82969684  0.93602367     0.03800
C2695       C  0.18118004  0.83464003  0.94227222    -0.12200
C2696       C  0.18008996  0.84409556  0.94141692     0.18600
C2697       C  0.18450613  0.84868348  0.93423378    -0.09300
C2698       C  0.18985769  0.84379043  0.92798727    -0.02200
H2699       H  0.17782149  0.83108110  0.94783605     0.05200
C2700       C  0.17486385  0.84910497  0.94848156     0.20600
H2701       H  0.19324134  0.84749851  0.92254485     0.10300
C2702       C  0.17940477  0.85158277  0.95651230    -0.15600
C2703       C  0.17469639  0.85586962  0.96362983     0.03300
C2704       C  0.16516764  0.85762201  0.96285950    -0.10900
C2705       C  0.16069753  0.85549659  0.95462472    -0.00900
C2706       C  0.16548309  0.85125727  0.94745236    -0.06100
H2707       H  0.18667277  0.85014275  0.95725250     0.06300
H2708       H  0.15341412  0.85684355  0.95388554     0.09700
Br2709     Br  0.18353084  0.86164740  0.93281257    -0.05800
Br2710     Br  0.18687064  0.81671775  0.93758735    -0.02800
Br2711     Br  0.18184054  0.85957186  0.97400457     0.00100
Br2712     Br  0.15895656  0.84830154  0.93647742    -0.04300
C2713       C  0.15367892  0.97268962  0.83955778    -0.11700
C2714       C  0.15888655  0.96657866  0.84491489     0.03800
C2715       C  0.16378213  0.95950544  0.84068234    -0.12200
C2716       C  0.16353499  0.95841669  0.83116769     0.18600
C2717       C  0.15809518  0.96431381  0.82587317    -0.09300
C2718       C  0.15329869  0.97141917  0.83006261    -0.02200
H2719       H  0.16797649  0.95498327  0.84479014     0.05200
C2720       C  0.16919539  0.95130437  0.82677486     0.20600
H2721       H  0.14929251  0.97602892  0.82586556     0.10300
C2722       C  0.16585720  0.94236893  0.82625891    -0.15600
C2723       C  0.17089619  0.93558229  0.82177060     0.03300
C2724       C  0.17939161  0.93774648  0.81763508    -0.10900
C2725       C  0.18268339  0.94671524  0.81812469    -0.00900
C2726       C  0.17771067  0.95345006  0.82274227    -0.06100
H2727       H  0.15926606  0.94070063  0.82927314     0.06300
H2728       H  0.18926584  0.94843191  0.81512079     0.09700
Br2729     Br  0.15709042  0.96293149  0.81288406    -0.05800
Br2730     Br  0.16019752  0.96802132  0.85786768    -0.02800
Br2731     Br  0.16562324  0.92361625  0.82109909     0.00100
Br2732     Br  0.18289639  0.96543410  0.82359171    -0.04300
C2733       C  0.22668111  0.91326282  0.76311705    -0.11700
C2734       C  0.22838306  0.90620070  0.75679199     0.03800
C2735       C  0.23347476  0.90798583  0.74886746    -0.12200
C2736       C  0.23721662  0.91665717  0.74717732     0.18600
C2737       C  0.23535052  0.92375065  0.75340845    -0.09300
C2738       C  0.23005907  0.92202927  0.76121876    -0.02200
H2739       H  0.23461805  0.90252483  0.74402328     0.05200
C2740       C  0.24308288  0.91805795  0.73894546     0.20600
H2741       H  0.22885093  0.92752359  0.76600773     0.10300
C2742       C  0.24063897  0.92464063  0.73238130    -0.15600
C2743       C  0.24579054  0.92574808  0.72434585     0.03300
C2744       C  0.25335494  0.91999927  0.72262478    -0.10900
C2745       C  0.25587092  0.91352995  0.72922760    -0.00900
C2746       C  0.25092677  0.91261288  0.73736577    -0.06100
H2747       H  0.23458416  0.92881162  0.73342014     0.06300
H2748       H  0.26171912  0.90911497  0.72802003     0.09700
Br2749     Br  0.24031505  0.93577609  0.75194484    -0.05800
Br2750     Br  0.22365803  0.89408200  0.75834106    -0.02800
Br2751     Br  0.24182169  0.93473705  0.71568577     0.00100
Br2752     Br  0.25536228  0.90393446  0.74615172    -0.04300
C2753       C  0.22109117  0.84204239  0.86280848    -0.11700
C2754       C  0.22182850  0.85147054  0.86462309     0.03800
C2755       C  0.22196804  0.85768422  0.85740401    -0.12200
C2756       C  0.22139319  0.85467551  0.84836066     0.18600
C2757       C  0.22125289  0.84528073  0.84649214    -0.09300
C2758       C  0.22116925  0.83901687  0.85371346    -0.02200
H2759       H  0.22218705  0.86492228  0.85885252     0.05200
C2760       C  0.21988803  0.86146757  0.84111392     0.20600
H2761       H  0.22065123  0.83180612  0.85222268     0.10300
C2762       C  0.22732963  0.86476792  0.83601858    -0.15600
C2763       C  0.22605648  0.87166505  0.82951392     0.03300
C2764       C  0.21716988  0.87525007  0.82799787    -0.10900
C2765       C  0.20974679  0.87181345  0.83307939    -0.00900
C2766       C  0.21105274  0.86503227  0.83962118    -0.06100
H2767       H  0.23417459  0.86215129  0.83729665     0.06300
H2768       H  0.20288372  0.87448680  0.83203484     0.09700
Br2769     Br  0.22048906  0.84080923  0.83421656    -0.05800
Br2770     Br  0.22279205  0.85631783  0.87676620    -0.02800
Br2771     Br  0.23681797  0.87648187  0.82367341     0.00100
Br2772     Br  0.20060598  0.86098767  0.84654463    -0.04300
C2773       C  0.26584093  0.73948497  0.90218673    -0.11700
C2774       C  0.25653680  0.73969656  0.89941483     0.03800
C2775       C  0.25150988  0.74781896  0.89994960    -0.12200
C2776       C  0.25548971  0.75583024  0.90334173     0.18600
C2777       C  0.26458445  0.75549673  0.90667354    -0.09300
C2778       C  0.26968285  0.74739293  0.90602371    -0.02200
H2779       H  0.24443880  0.74790106  0.89763278     0.05200
C2780       C  0.24996845  0.76437785  0.90324213     0.20600
H2781       H  0.27673929  0.74732790  0.90837676     0.10300
C2782       C  0.24168431  0.76476507  0.90816251    -0.15600
C2783       C  0.23585363  0.77237351  0.90757745     0.03300
C2784       C  0.23837005  0.77992478  0.90210314    -0.10900
C2785       C  0.24666587  0.77947825  0.89717777    -0.00900
C2786       C  0.25235039  0.77178844  0.89758924    -0.06100
H2787       H  0.23960846  0.75898010  0.91227800     0.06300
H2788       H  0.24871069  0.78509942  0.89283674     0.09700
Br2789     Br  0.27025218  0.76582644  0.91239124    -0.05800
Br2790     Br  0.25005671  0.72902877  0.89541754    -0.02800
Br2791     Br  0.22417788  0.77150103  0.91362391     0.00100
Br2792     Br  0.26286193  0.77147379  0.88966116    -0.04300
C2793       C  0.24115811  0.60484342  0.72247184    -0.11700
C2794       C  0.24907740  0.59934125  0.72293881     0.03800
C2795       C  0.25474532  0.59970890  0.73066733    -0.12200
C2796       C  0.25253868  0.60536774  0.73809375     0.18600
C2797       C  0.24446923  0.61070947  0.73767423    -0.09300
C2798       C  0.23894128  0.61048661  0.72987013    -0.02200
H2799       H  0.26100187  0.59570664  0.73080006     0.05200
C2800       C  0.25889656  0.60601664  0.74601115     0.20600
H2801       H  0.23286862  0.61475534  0.72956616     0.10300
C2802       C  0.26266356  0.61453283  0.74824410    -0.15600
C2803       C  0.26803696  0.61567642  0.75607043     0.03300
C2804       C  0.26986728  0.60815401  0.76180332    -0.10900
C2805       C  0.26661746  0.59951201  0.75924742    -0.00900
C2806       C  0.26114932  0.59839372  0.75145331    -0.06100
H2807       H  0.26129389  0.62037543  0.74392226     0.06300
H2808       H  0.26805776  0.59364597  0.76351231     0.09700
Br2809     Br  0.24055380  0.61831431  0.74762016    -0.05800
Br2810     Br  0.25279845  0.59176114  0.71293306    -0.02800
Br2811     Br  0.27301654  0.62758956  0.75825929     0.00100
Br2812     Br  0.25654685  0.58641280  0.74888800    -0.04300
C2813       C  0.28486365  0.64652242  0.82526979    -0.11700
C2814       C  0.28416043  0.65567659  0.82235941     0.03800
C2815       C  0.28383835  0.66269562  0.82884590    -0.12200
C2816       C  0.28415573  0.66072241  0.83821257     0.18600
C2817       C  0.28454562  0.65159274  0.84111011    -0.09300
C2818       C  0.28494705  0.64459838  0.83466332    -0.02200
H2819       H  0.28362605  0.66972480  0.82658355     0.05200
C2820       C  0.28477400  0.66820243  0.84491861     0.20600
H2821       H  0.28547520  0.63761031  0.83700555     0.10300
C2822       C  0.27688268  0.67097548  0.84966106    -0.15600
C2823       C  0.27748120  0.67728056  0.85681762     0.03300
C2824       C  0.28611127  0.68091496  0.85928725    -0.10900
C2825       C  0.29395771  0.67825989  0.85437134    -0.00900
C2826       C  0.29334076  0.67198473  0.84722423    -0.06100
H2827       H  0.27029618  0.66795917  0.84801363     0.06300
H2828       H  0.30063343  0.68095728  0.85621291     0.09700
Br2829     Br  0.28497135  0.64839679  0.85381442    -0.05800
Br2830     Br  0.28450875  0.65907232  0.80970868    -0.02800
Br2831     Br  0.26647433  0.67986335  0.86356018     0.00100
Br2832     Br  0.30443485  0.66838372  0.84111267    -0.04300
C2833       C  0.81997967  0.94176831  0.18698401    -0.11700
C2834       C  0.82256927  0.95054410  0.18994257     0.03800
C2835       C  0.82665208  0.95662307  0.18377454    -0.12200
C2836       C  0.82815801  0.95414761  0.17462805     0.18600
C2837       C  0.82547644  0.94543220  0.17165842    -0.09300
C2838       C  0.82148977  0.93932001  0.17783065    -0.02200
H2839       H  0.82879945  0.96327857  0.18615424     0.05200
C2840       C  0.83273108  0.96069362  0.16839510     0.20600
H2841       H  0.81949809  0.93261952  0.17544540     0.10300
C2842       C  0.84152624  0.95872156  0.16494418    -0.15600
C2843       C  0.84632452  0.96510785  0.15963505     0.03300
C2844       C  0.84237395  0.97372472  0.15789401    -0.10900
C2845       C  0.83344650  0.97552024  0.16109470    -0.00900
C2846       C  0.82860320  0.96908392  0.16621085    -0.06100
H2847       H  0.84475734  0.95226798  0.16657605     0.06300
H2848       H  0.83021780  0.98201982  0.15965348     0.09700
Br2849     Br  0.82684895  0.94167481  0.15918780    -0.05800
Br2850     Br  0.82139904  0.95435842  0.20242255    -0.02800
Br2851     Br  0.85843347  0.96189435  0.15556443     0.00100
Br2852     Br  0.81629567  0.97200996  0.16991029    -0.04300
C2853       C  0.92968452  0.83578399  0.18615652    -0.11700
C2854       C  0.93912975  0.83573139  0.18848568     0.03800
C2855       C  0.94546071  0.84052009  0.18308777    -0.12200
C2856       C  0.94258832  0.84562699  0.17550542     0.18600
C2857       C  0.93319407  0.84589139  0.17329988    -0.09300
C2858       C  0.92687658  0.84095841  0.17853796    -0.02200
H2859       H  0.95268361  0.84034069  0.18487341     0.05200
C2860       C  0.94951465  0.85036855  0.16979608     0.20600
H2861       H  0.91969872  0.84121033  0.17661595     0.10300
C2862       C  0.95098988  0.84737463  0.16080663    -0.15600
C2863       C  0.95781398  0.85132471  0.15535773     0.03300
C2864       C  0.96325100  0.85841842  0.15886596    -0.10900
C2865       C  0.96170026  0.86153099  0.16778368    -0.00900
C2866       C  0.95488731  0.85757493  0.17325595    -0.06100
H2867       H  0.94696569  0.84178640  0.15810376     0.06300
H2868       H  0.96598950  0.86687214  0.17058698     0.09700
Br2869     Br  0.92862447  0.85321986  0.16342488    -0.05800
Br2870     Br  0.94388442  0.83001486  0.19928584    -0.02800
Br2871     Br  0.95981659  0.84651502  0.14334686     0.00100
Br2872     Br  0.95322514  0.86221128  0.18539263    -0.04300
C2873       C  0.86094671  0.84072819  0.21385331    -0.11700
C2874       C  0.85215830  0.83714951  0.21592489     0.03800
C2875       C  0.84449829  0.84293711  0.21600688    -0.12200
C2876       C  0.84545526  0.85221823  0.21400930     0.18600
C2877       C  0.85420712  0.85582932  0.21219109    -0.09300
C2878       C  0.86183335  0.85009923  0.21209601    -0.02200
H2879       H  0.83774824  0.84016494  0.21743646     0.05200
C2880       C  0.83734615  0.85818452  0.21381441     0.20600
H2881       H  0.86851336  0.85301998  0.21065363     0.10300
C2882       C  0.83390681  0.86161978  0.22205228    -0.15600
C2883       C  0.82758835  0.86880386  0.22207181     0.03300
C2884       C  0.82467371  0.87260943  0.21369084    -0.10900
C2885       C  0.82765540  0.86869140  0.20547110    -0.00900
C2886       C  0.83390473  0.86149079  0.20548055    -0.06100
H2887       H  0.83658536  0.85909222  0.22847625     0.06300
H2888       H  0.82535848  0.87145703  0.19899941     0.09700
Br2889     Br  0.85608283  0.86858325  0.20986107    -0.05800
Br2890     Br  0.84994378  0.82442570  0.21799972    -0.02800
Br2891     Br  0.82418527  0.87375063  0.23372442     0.00100
Br2892     Br  0.83800464  0.85676195  0.19396246    -0.04300
C2893       C  0.72777720  0.91760865  0.26388678    -0.11700
C2894       C  0.73600480  0.92147810  0.26729303     0.03800
C2895       C  0.74395779  0.92136835  0.26192260    -0.12200
C2896       C  0.74401109  0.91724158  0.25330246     0.18600
C2897       C  0.73597316  0.91305802  0.25004958    -0.09300
C2898       C  0.72792884  0.91345851  0.25522123    -0.02200
H2899       H  0.75022607  0.92434115  0.26457636     0.05200
C2900       C  0.75265912  0.91698082  0.24804635     0.20600
H2901       H  0.72179394  0.91033076  0.25247173     0.10300
C2902       C  0.76014416  0.91212437  0.25159091    -0.15600
C2903       C  0.76845584  0.91167418  0.24683518     0.03300
C2904       C  0.76932478  0.91608792  0.23829038    -0.10900
C2905       C  0.76190285  0.92118309  0.23490409    -0.00900
C2906       C  0.75362914  0.92169320  0.23972267    -0.06100
H2907       H  0.75951330  0.90868364  0.25811350     0.06300
H2908       H  0.76248007  0.92467627  0.22840899     0.09700
Br2909     Br  0.73578735  0.90612508  0.23893132    -0.05800
Br2910     Br  0.73735002  0.92617858  0.27944630    -0.02800
Br2911     Br  0.77846126  0.90546913  0.25273265     0.00100
Br2912     Br  0.74396767  0.92912359  0.23479167    -0.04300
C2913       C  0.63334831  0.84284811  0.27893547    -0.11700
C2914       C  0.64277080  0.84077405  0.27814101     0.03800
C2915       C  0.64918973  0.84784366  0.27739916    -0.12200
C2916       C  0.64633014  0.85697798  0.27737854     0.18600
C2917       C  0.63688896  0.85902375  0.27768056    -0.09300
C2918       C  0.63049237  0.85198063  0.27853501    -0.02200
H2919       H  0.65645675  0.84623779  0.27723328     0.05200
C2920       C  0.65324009  0.86429394  0.27810145     0.20600
H2921       H  0.62326091  0.85365215  0.27912119     0.10300
C2922       C  0.65513664  0.86985945  0.27053953    -0.15600
C2923       C  0.66111049  0.87729981  0.27133893     0.03300
C2924       C  0.66526409  0.87921639  0.27982517    -0.10900
C2925       C  0.66342203  0.87356569  0.28733311    -0.00900
C2926       C  0.65749683  0.86613904  0.28652348    -0.06100
H2927       H  0.65176782  0.86855040  0.26407900     0.06300
H2928       H  0.66655578  0.87498041  0.29388923     0.09700
Br2929     Br  0.63246452  0.87135226  0.27755665    -0.05800
Br2930     Br  0.64729686  0.82852443  0.27900382    -0.02800
Br2931     Br  0.66266790  0.88505718  0.26089418     0.00100
Br2932     Br  0.65507266  0.85897161  0.29722945    -0.04300
C2933       C  0.93314750  0.69043543  0.31008243    -0.11700
C2934       C  0.94222484  0.68789144  0.30786505     0.03800
C2935       C  0.94799967  0.68436008  0.31466145    -0.12200
C2936       C  0.94484301  0.68328155  0.32365598     0.18600
C2937       C  0.93581293  0.68583320  0.32587659    -0.09300
C2938       C  0.93003946  0.68933345  0.31910888    -0.02200
H2939       H  0.95495212  0.68236197  0.31291595     0.05200
C2940       C  0.95115374  0.67970161  0.33067800     0.20600
H2941       H  0.92306712  0.69120815  0.32091148     0.10300
C2942       C  0.95633192  0.68586563  0.33582640    -0.15600
C2943       C  0.96287798  0.68275572  0.34206891     0.03300
C2944       C  0.96434779  0.67331074  0.34320342    -0.10900
C2945       C  0.95879044  0.66713524  0.33841139    -0.00900
C2946       C  0.95223896  0.67027709  0.33213900    -0.06100
H2947       H  0.95537899  0.69312875  0.33486604     0.06300
H2948       H  0.95984866  0.65986888  0.33921397     0.09700
Br2949     Br  0.93107679  0.68454766  0.33803677    -0.05800
Br2950     Br  0.94684620  0.68841670  0.29560515    -0.02800
Br2951     Br  0.96949392  0.69171784  0.34898465     0.00100
Br2952     Br  0.94513060  0.66152231  0.32548012    -0.04300
C2953       C  0.90501717  0.73986670  0.25843804    -0.11700
C2954       C  0.89921610  0.74096293  0.25073410     0.03800
C2955       C  0.89927396  0.74914972  0.24581398    -0.12200
C2956       C  0.90528940  0.75621946  0.24812097     0.18600
C2957       C  0.91154408  0.75491727  0.25533464    -0.09300
C2958       C  0.91132104  0.74684572  0.26047039    -0.02200
H2959       H  0.89461463  0.74999739  0.24010602     0.05200
C2960       C  0.90469313  0.76502213  0.24316612     0.20600
H2961       H  0.91600502  0.74610726  0.26616647     0.10300
C2962       C  0.90120499  0.77266390  0.24774727    -0.15600
C2963       C  0.90045273  0.78110999  0.24335310     0.03300
C2964       C  0.90326909  0.78203903  0.23414825    -0.10900
C2965       C  0.90677355  0.77436014  0.22958330    -0.00900
C2966       C  0.90740649  0.76589031  0.23397497    -0.06100
H2967       H  0.89908241  0.77204995  0.25481644     0.06300
H2968       H  0.90890280  0.77490911  0.22251353     0.09700
Br2969     Br  0.92066097  0.76390636  0.25820916    -0.05800
Br2970     Br  0.89162500  0.73139490  0.24593892    -0.02800
Br2971     Br  0.89607139  0.79114742  0.25055403     0.00100
Br2972     Br  0.91214675  0.75573990  0.22720233    -0.04300
C2973       C  0.82135272  0.57731808  0.31083728    -0.11700
C2974       C  0.81566165  0.57153203  0.31610692     0.03800
C2975       C  0.81963114  0.56507921  0.32199312    -0.12200
C2976       C  0.82921058  0.56431939  0.32278056     0.18600
C2977       C  0.83486906  0.57010864  0.31760528    -0.09300
C2978       C  0.83094554  0.57652401  0.31172908    -0.02200
H2979       H  0.81523568  0.56064540  0.32598724     0.05200
C2980       C  0.83327999  0.55716470  0.32864047     0.20600
H2981       H  0.83545388  0.58088307  0.30778185     0.10300
C2982       C  0.83690624  0.54937247  0.32446928    -0.15600
C2983       C  0.84114269  0.54256735  0.32964625     0.03300
C2984       C  0.84171459  0.54343374  0.33923774    -0.10900
C2985       C  0.83826685  0.55134617  0.34340619    -0.00900
C2986       C  0.83404340  0.55818857  0.33817379    -0.06100
H2987       H  0.83654047  0.54864609  0.31711601     0.06300
H2988       H  0.83865826  0.55210306  0.35075224     0.09700
Br2989     Br  0.84801976  0.56954683  0.31845634    -0.05800
Br2990     Br  0.80250878  0.57249110  0.31610271    -0.02800
Br2991     Br  0.84652810  0.53253714  0.32313095     0.00100
Br2992     Br  0.82951518  0.56885413  0.34425143    -0.04300
C2993       C  0.83405718  0.64337171  0.27978256    -0.11700
C2994       C  0.84360893  0.64219142  0.27856328     0.03800
C2995       C  0.84941186  0.64977470  0.27857183    -0.12200
C2996       C  0.84586011  0.65856780  0.27975190     0.18600
C2997       C  0.83631483  0.65980848  0.28060234    -0.09300
C2998       C  0.83047634  0.65222970  0.28055889    -0.02200
H2999       H  0.85675275  0.64880766  0.27776955     0.05200
C3000       C  0.85232132  0.66627140  0.28042107     0.20600
H3001       H  0.82315406  0.65323831  0.28145441     0.10300
C3002       C  0.85560167  0.67040408  0.27243144    -0.15600
C3003       C  0.86241943  0.67712864  0.27282211     0.03300
C3004       C  0.86602757  0.67981322  0.28136315    -0.10900
C3005       C  0.86259803  0.67572170  0.28934919    -0.00900
C3006       C  0.85580832  0.66901061  0.28893159    -0.06100
H3007       H  0.85305022  0.66817867  0.26585352     0.06300
H3008       H  0.86531477  0.67765885  0.29595351     0.09700
Br3009     Br  0.83104455  0.67169226  0.28210753    -0.05800
Br3010     Br  0.84909205  0.63047553  0.27643261    -0.02800
Br3011     Br  0.86713491  0.68160312  0.26143044     0.00100
Br3012     Br  0.85174905  0.66349021  0.30011497    -0.04300
C3013       C  0.59348340  0.78085941  0.26270762    -0.11700
C3014       C  0.59081604  0.77227499  0.26618296     0.03800
C3015       C  0.59029627  0.76473006  0.26033050    -0.12200
C3016       C  0.59255822  0.76549920  0.25103299     0.18600
C3017       C  0.59511429  0.77408581  0.24754678    -0.09300
C3018       C  0.59554612  0.78163850  0.25336022    -0.02200
H3019       H  0.58839591  0.75814739  0.26310544     0.05200
C3020       C  0.59269901  0.75721379  0.24519771     0.20600
H3021       H  0.59764713  0.78815274  0.25056972     0.10300
C3022       C  0.58671354  0.75652897  0.23771467    -0.15600
C3023       C  0.58707295  0.74903258  0.23177191     0.03300
C3024       C  0.59335851  0.74184759  0.23343859    -0.10900
C3025       C  0.59919572  0.74251906  0.24107704    -0.00900
C3026       C  0.59899064  0.75010930  0.24683572    -0.06100
H3027       H  0.58190875  0.76200398  0.23633746     0.06300
H3028       H  0.60407319  0.73714971  0.24256950     0.09700
Br3029     Br  0.59866853  0.77576477  0.23503045    -0.05800
Br3030     Br  0.58874878  0.77016237  0.27895316    -0.02800
Br3031     Br  0.57942337  0.74961250  0.22112237     0.00100
Br3032     Br  0.60789643  0.75068847  0.25648983    -0.04300
C3033       C  0.72968114  0.60643181  0.23496528    -0.11700
C3034       C  0.73768317  0.60247697  0.23118162     0.03800
C3035       C  0.74571412  0.60187744  0.23641475    -0.12200
C3036       C  0.74602032  0.60526809  0.24536337     0.18600
C3037       C  0.73809796  0.60934512  0.24909503    -0.09300
C3038       C  0.73002162  0.60980591  0.24394174    -0.02200
H3039       H  0.75185283  0.59896973  0.23339618     0.05200
C3040       C  0.75487363  0.60517133  0.25036099     0.20600
H3041       H  0.72400976  0.61299103  0.24692287     0.10300
C3042       C  0.76222044  0.61031204  0.24693154    -0.15600
C3043       C  0.77068387  0.61055956  0.25145163     0.03300
C3044       C  0.77185538  0.60574950  0.25975862    -0.10900
C3045       C  0.76456577  0.60033398  0.26298707    -0.00900
C3046       C  0.75617896  0.59993383  0.25831736    -0.06100
H3047       H  0.76137561  0.61411812  0.24064148     0.06300
H3048       H  0.76534337  0.59643826  0.26922302     0.09700
Br3049     Br  0.73813333  0.61502140  0.26090355    -0.05800
Br3050     Br  0.73849582  0.59868827  0.21866440    -0.02800
Br3051     Br  0.78046170  0.61695372  0.24539428     0.00100
Br3052     Br  0.74685940  0.59185819  0.26285141    -0.04300
C3053       C  0.67196632  0.65116745  0.21552243    -0.11700
C3054       C  0.66826996  0.65590333  0.20798199     0.03800
C3055       C  0.66172320  0.66272608  0.20938418    -0.12200
C3056       C  0.65887440  0.66506619  0.21822764     0.18600
C3057       C  0.66298795  0.66073981  0.22578333    -0.09300
C3058       C  0.66950879  0.65386460  0.22438990    -0.02200
H3059       H  0.65865151  0.66605756  0.20352638     0.05200
C3060       C  0.65100186  0.67135363  0.21931144     0.20600
H3061       H  0.67235548  0.65034718  0.23024821     0.10300
C3062       C  0.64277139  0.66794681  0.22295303    -0.15600
C3063       C  0.63482503  0.67328691  0.22310484     0.03300
C3064       C  0.63498897  0.68215210  0.21939591    -0.10900
C3065       C  0.64332775  0.68573532  0.21618123    -0.00900
C3066       C  0.65130432  0.68040007  0.21609103    -0.06100
H3067       H  0.64247750  0.66102053  0.22550710     0.06300
H3068       H  0.64356099  0.69257477  0.21339978     0.09700
Br3069     Br  0.65981159  0.66389771  0.23810012    -0.05800
Br3070     Br  0.67206382  0.65354128  0.19564242    -0.02800
Br3071     Br  0.62405040  0.66824640  0.22874853     0.00100
Br3072     Br  0.66241158  0.68571717  0.21145334    -0.04300
C3073       C  0.93408382  0.20572831  0.82548852    -0.11700
C3074       C  0.94362499  0.20735592  0.82455539     0.03800
C3075       C  0.94995337  0.20177935  0.82914210    -0.12200
C3076       C  0.94699407  0.19463345  0.83478608     0.18600
C3077       C  0.93752464  0.19307001  0.83584025    -0.09300
C3078       C  0.93118502  0.19852830  0.83116818    -0.02200
H3079       H  0.95723785  0.20317530  0.82849992     0.05200
C3080       C  0.95386320  0.18935243  0.84005773     0.20600
H3081       H  0.92392500  0.19717721  0.83207770     0.10300
C3082       C  0.95797603  0.19341157  0.84768459    -0.15600
C3083       C  0.96460819  0.18874928  0.85279104     0.03300
C3084       C  0.96728278  0.17985397  0.85025620    -0.10900
C3085       C  0.96298644  0.17569994  0.84275114    -0.00900
C3086       C  0.95636714  0.18040148  0.83761841    -0.06100
H3087       H  0.95598789  0.20024256  0.84968764     0.06300
H3088       H  0.96501913  0.16890483  0.84067717     0.09700
Br3089     Br  0.93294899  0.18388440  0.84399530    -0.05800
Br3090     Br  0.94852580  0.21758083  0.81798297    -0.02800
Br3091     Br  0.96944229  0.19470459  0.86341679     0.00100
Br3092     Br  0.95122254  0.17451985  0.82711070    -0.04300
C3093       C  0.82119661  0.19468479  0.93287404    -0.11700
C3094       C  0.82033324  0.19596538  0.94241430     0.03800
C3095       C  0.82369281  0.18931929  0.94843505    -0.12200
C3096       C  0.82798196  0.18141932  0.94514108     0.18600
C3097       C  0.82869711  0.18004636  0.93568005    -0.09300
C3098       C  0.82534690  0.18664293  0.92965030    -0.02200
H3099       H  0.82316287  0.19041563  0.95573261     0.05200
C3100       C  0.83181781  0.17475777  0.95167709     0.20600
H3101       H  0.82599293  0.18545755  0.92238000     0.10300
C3102       C  0.82588990  0.16868406  0.95612084    -0.15600
C3103       C  0.82925758  0.16251459  0.96259694     0.03300
C3104       C  0.83871990  0.16240067  0.96474100    -0.10900
C3105       C  0.84468741  0.16827144  0.96003137    -0.00900
C3106       C  0.84129506  0.17447267  0.95359304    -0.06100
H3107       H  0.81860947  0.16878569  0.95457759     0.06300
H3108       H  0.85194354  0.16835184  0.96167787     0.09700
Br3109     Br  0.83419155  0.16924154  0.93071632    -0.05800
Br3110     Br  0.81541156  0.20687641  0.94774299    -0.02800
Br3111     Br  0.82066115  0.15424198  0.96810356     0.00100
Br3112     Br  0.84975518  0.18277716  0.94795475    -0.04300
C3113       C  0.83214784  0.22648201  0.86549259    -0.11700
C3114       C  0.82845353  0.22543879  0.85663547     0.03800
C3115       C  0.83406263  0.22676038  0.84896075    -0.12200
C3116       C  0.84333722  0.22910317  0.84998123     0.18600
C3117       C  0.84699420  0.23023813  0.85880325    -0.09300
C3118       C  0.84142276  0.22888680  0.86646435    -0.02200
H3119       H  0.83127205  0.22566190  0.84219550     0.05200
C3120       C  0.84945871  0.22933556  0.84194071     0.20600
H3121       H  0.84434545  0.22973073  0.87321215     0.10300
C3122       C  0.85135628  0.23763247  0.83755960    -0.15600
C3123       C  0.85849241  0.23827090  0.83113196     0.03300
C3124       C  0.86391468  0.23051668  0.82917257    -0.10900
C3125       C  0.86151696  0.22211573  0.83311224    -0.00900
C3126       C  0.85433122  0.22147341  0.83939097    -0.06100
H3127       H  0.84759459  0.24370905  0.83948875     0.06300
H3128       H  0.86549347  0.21606281  0.83156625     0.09700
Br3129     Br  0.85966685  0.23334028  0.86067409    -0.05800
Br3130     Br  0.81608718  0.22137471  0.85462323    -0.02800
Br3131     Br  0.86106875  0.25005921  0.82606605     0.00100
Br3132     Br  0.85182676  0.20984040  0.84484951    -0.04300
C3133       C  0.92937570  0.32903635  0.67799598    -0.11700
C3134       C  0.92991492  0.32941436  0.66836626     0.03800
C3135       C  0.93665991  0.33476074  0.66413754    -0.12200
C3136       C  0.94296253  0.33976215  0.66933407     0.18600
C3137       C  0.94236457  0.33950018  0.67893940    -0.09300
C3138       C  0.93566677  0.33409634  0.68319124    -0.02200
H3139       H  0.93715201  0.33482533  0.65675483     0.05200
C3140       C  0.95046764  0.34471793  0.66462412     0.20600
H3141       H  0.93529258  0.33393839  0.69057819     0.10300
C3142       C  0.94863294  0.35292661  0.66003871    -0.15600
C3143       C  0.95571386  0.35784056  0.65574214     0.03300
C3144       C  0.96482678  0.35446462  0.65593463    -0.10900
C3145       C  0.96650856  0.34608239  0.66030987    -0.00900
C3146       C  0.95946644  0.34123780  0.66460124    -0.06100
H3147       H  0.94169937  0.35562333  0.65998812     0.06300
H3148       H  0.97337837  0.34324194  0.66042139     0.09700
Br3149     Br  0.95048707  0.34651197  0.68648438    -0.05800
Br3150     Br  0.92216084  0.32220429  0.66061862    -0.02800
Br3151     Br  0.95254512  0.36937239  0.65041996     0.00100
Br3152     Br  0.96246757  0.32982423  0.67028982    -0.04300
C3153       C  0.90650243  0.25064072  0.76992301    -0.11700
C3154       C  0.91155633  0.24765898  0.76222324     0.03800
C3155       C  0.91210001  0.25318728  0.75442082    -0.12200
C3156       C  0.90746468  0.26156582  0.75397958     0.18600
C3157       C  0.90211372  0.26436213  0.76147718    -0.09300
C3158       C  0.90182137  0.25902381  0.76938597    -0.02200
H3159       H  0.91591398  0.25079757  0.74853158     0.05200
C3160       C  0.90750811  0.26681223  0.74532208     0.20600
H3161       H  0.89775400  0.26140535  0.77509954     0.10300
C3162       C  0.90309065  0.26310152  0.73768934    -0.15600
C3163       C  0.90247129  0.26797209  0.72950024     0.03300
C3164       C  0.90633573  0.27678526  0.72882798    -0.10900
C3165       C  0.91110593  0.28033692  0.73636907    -0.00900
C3166       C  0.91170153  0.27544052  0.74457623    -0.06100
H3167       H  0.89999679  0.25639988  0.73814676     0.06300
H3168       H  0.91417410  0.28705077  0.73596647     0.09700
Br3169     Br  0.89444212  0.27500316  0.76096901    -0.05800
Br3170     Br  0.91693513  0.23574105  0.76139685    -0.02800
Br3171     Br  0.89665240  0.26196045  0.71940350     0.00100
Br3172     Br  0.91833651  0.28077942  0.75454501    -0.04300
C3173       C  0.82899420  0.31644412  0.56431724    -0.11700
C3174       C  0.82369841  0.32221638  0.55865264     0.03800
C3175       C  0.82801898  0.32742336  0.55187538    -0.12200
C3176       C  0.83756216  0.32702159  0.55064521     0.18600
C3177       C  0.84285902  0.32134434  0.55630206    -0.09300
C3178       C  0.83857624  0.31613693  0.56307274    -0.02200
H3179       H  0.82392634  0.33185123  0.54756695     0.05200
C3180       C  0.84185294  0.33244134  0.54329960     0.20600
H3181       H  0.84276631  0.31176773  0.56734528     0.10300
C3182       C  0.84438696  0.34150185  0.54495521    -0.15600
C3183       C  0.84821077  0.34689077  0.53800909     0.03300
C3184       C  0.84964845  0.34313656  0.52922129    -0.10900
C3185       C  0.84714773  0.33399205  0.52768798    -0.00900
C3186       C  0.84323928  0.32869213  0.53459704    -0.06100
H3187       H  0.84321080  0.34444154  0.55163925     0.06300
H3188       H  0.84818069  0.33092137  0.52104638     0.09700
Br3189     Br  0.85595171  0.32050988  0.55499299    -0.05800
Br3190     Br  0.81070692  0.32386310  0.56021504    -0.02800
Br3191     Br  0.85047746  0.35944731  0.54085599     0.00100
Br3192     Br  0.83967734  0.31641447  0.53180917    -0.04300
C3193       C  0.83515662  0.29189883  0.63431837    -0.11700
C3194       C  0.84475409  0.29073909  0.63503346     0.03800
C3195       C  0.84907853  0.29196709  0.64345073    -0.12200
C3196       C  0.84402051  0.29437566  0.65123574     0.18600
C3197       C  0.83443221  0.29542022  0.65057905    -0.09300
C3198       C  0.83006248  0.29407662  0.64217589    -0.02200
H3199       H  0.85646708  0.29114919  0.64391396     0.05200
C3200       C  0.84906469  0.29618275  0.65978714     0.20600
H3201       H  0.82269009  0.29500995  0.64172221     0.10300
C3202       C  0.85001618  0.30520106  0.66279524    -0.15600
C3203       C  0.85605515  0.30735922  0.66989988     0.03300
C3204       C  0.86134190  0.30042150  0.67402692    -0.10900
C3205       C  0.85988178  0.29132347  0.67141896    -0.00900
C3206       C  0.85381670  0.28917802  0.66434859    -0.06100
H3207       H  0.84628771  0.31061825  0.65938906     0.06300
H3208       H  0.86379404  0.28588641  0.67457279     0.09700
Br3209     Br  0.82706942  0.29870218  0.66093479    -0.05800
Br3210     Br  0.85229667  0.28713519  0.62489562    -0.02800
Br3211     Br  0.85665400  0.31983419  0.67377964     0.00100
Br3212     Br  0.85242586  0.27662389  0.66096092    -0.04300
C3213       C  0.73138767  0.27297972  0.90510931    -0.11700
C3214       C  0.73324561  0.26718725  0.91257113     0.03800
C3215       C  0.74133056  0.26201039  0.91268446    -0.12200
C3216       C  0.74773563  0.26262441  0.90553501     0.18600
C3217       C  0.74596255  0.26858190  0.89818127    -0.09300
C3218       C  0.73780678  0.27361340  0.89798123    -0.02200
H3219       H  0.74253806  0.25733371  0.91828634     0.05200
C3220       C  0.75593526  0.25662762  0.90557815     0.20600
H3221       H  0.73648603  0.27808651  0.89223847     0.10300
C3222       C  0.75705944  0.25031040  0.89847736    -0.15600
C3223       C  0.76482419  0.24472663  0.89804946     0.03300
C3224       C  0.77154201  0.24522990  0.90496191    -0.10900
C3225       C  0.77026047  0.25128243  0.91226553    -0.00900
C3226       C  0.76258148  0.25703670  0.91257056    -0.06100
H3227       H  0.75188769  0.24977899  0.89318632     0.06300
H3228       H  0.77541019  0.25176015  0.91758216     0.09700
Br3229     Br  0.75453880  0.27026975  0.88834577    -0.05800
Br3230     Br  0.72469400  0.26550239  0.92240740    -0.02800
Br3231     Br  0.76568112  0.23631075  0.88805027     0.00100
Br3232     Br  0.76178844  0.26569564  0.92235330    -0.04300
C3233       C  0.63702840  0.29124251  0.82920621    -0.11700
C3234       C  0.63894467  0.28286843  0.83358683     0.03800
C3235       C  0.64601198  0.28238601  0.84007246    -0.12200
C3236       C  0.65125302  0.29011448  0.84218975     0.18600
C3237       C  0.64959983  0.29833514  0.83754405    -0.09300
C3238       C  0.64251207  0.29885856  0.83115933    -0.02200
H3239       H  0.64722669  0.27605681  0.84369503     0.05200
C3240       C  0.65788674  0.28982657  0.84978410     0.20600
H3241       H  0.64115955  0.30531632  0.82782253     0.10300
C3242       C  0.66730112  0.28905036  0.84790801    -0.15600
C3243       C  0.67381234  0.28999564  0.85488394     0.03300
C3244       C  0.67087605  0.29168021  0.86392245    -0.10900
C3245       C  0.66141798  0.29225845  0.86576907    -0.00900
C3246       C  0.65494776  0.29135267  0.85879989    -0.06100
H3247       H  0.66959170  0.28807791  0.84093526     0.06300
H3248       H  0.65903552  0.29353551  0.87266029     0.09700
Br3249     Br  0.65654817  0.30915268  0.84007529    -0.05800
Br3250     Br  0.63165866  0.27213997  0.83169307    -0.02800
Br3251     Br  0.68653836  0.28990126  0.85144698     0.00100
Br3252     Br  0.64218526  0.29275616  0.86181725    -0.04300
C3253       C  0.73238155  0.24740542  0.59256269    -0.11700
C3254       C  0.73411372  0.25423593  0.58599959     0.03800
C3255       C  0.74252098  0.25890925  0.58605902    -0.12200
C3256       C  0.74926159  0.25692301  0.59262762     0.18600
C3257       C  0.74748380  0.25015385  0.59922445    -0.09300
C3258       C  0.73910302  0.24549038  0.59916116    -0.02200
H3259       H  0.74373292  0.26425008  0.58108939     0.05200
C3260       C  0.75793944  0.26221624  0.59278580     0.20600
H3261       H  0.73783025  0.24031597  0.60429067     0.10300
C3262       C  0.75963690  0.26810478  0.60013151    -0.15600
C3263       C  0.76791486  0.27290439  0.60077873     0.03300
C3264       C  0.77465084  0.27196064  0.59389723    -0.10900
C3265       C  0.77282797  0.26628054  0.58639770    -0.00900
C3266       C  0.76459350  0.26135935  0.58584537    -0.06100
H3267       H  0.75450476  0.26890995  0.60543533     0.06300
H3268       H  0.77794415  0.26545649  0.58108282     0.09700
Br3269     Br  0.75635056  0.24693977  0.60838007    -0.05800
Br3270     Br  0.72494815  0.25801719  0.57737864    -0.02800
Br3271     Br  0.76938693  0.28095815  0.61099804     0.00100
Br3272     Br  0.76295869  0.25316400  0.57577989    -0.04300
C3273       C  0.59790088  0.24641902  0.72891305    -0.11700
C3274       C  0.60540210  0.24732304  0.73495325     0.03800
C3275       C  0.60454449  0.25273450  0.74276380    -0.12200
C3276       C  0.59626449  0.25720052  0.74478421     0.18600
C3277       C  0.58872343  0.25617432  0.73886074    -0.09300
C3278       C  0.58957118  0.25078158  0.73102183    -0.02200
H3279       H  0.61034536  0.25339660  0.74735075     0.05200
C3280       C  0.59566839  0.26282627  0.75314642     0.20600
H3281       H  0.58373540  0.25010231  0.72648356     0.10300
C3282       C  0.59508687  0.27234543  0.75238265    -0.15600
C3283       C  0.59514837  0.27788395  0.76017241     0.03300
C3284       C  0.59581697  0.27387663  0.76890953    -0.10900
C3285       C  0.59630116  0.26434750  0.76964590    -0.00900
C3286       C  0.59618625  0.25882752  0.76187195    -0.06100
H3287       H  0.59483304  0.27548195  0.74568649     0.06300
H3288       H  0.59681671  0.26118043  0.77631276     0.09700
Br3289     Br  0.57709206  0.26182100  0.74132524    -0.05800
Br3290     Br  0.61673574  0.24080926  0.73331941    -0.02800
Br3291     Br  0.59518700  0.29084420  0.75840912     0.00100
Br3292     Br  0.59667227  0.24585464  0.76350120    -0.04300
C3293       C  0.63658428  0.22925675  0.66661621    -0.11700
C3294       C  0.64155777  0.22208224  0.66248044     0.03800
C3295       C  0.64846621  0.22405411  0.65614008    -0.12200
C3296       C  0.65063087  0.23307921  0.65386379     0.18600
C3297       C  0.64593193  0.24024874  0.65820313    -0.09300
C3298       C  0.63900158  0.23830699  0.66454877    -0.02200
H3299       H  0.65210359  0.21850031  0.65286067     0.05200
C3300       C  0.65727530  0.23474670  0.64641064     0.20600
H3301       H  0.63533385  0.24390661  0.66770476     0.10300
C3302       C  0.65395490  0.23774674  0.63794813    -0.15600
C3303       C  0.65971157  0.23809286  0.63031522     0.03300
C3304       C  0.66896524  0.23528664  0.63106612    -0.10900
C3305       C  0.67243492  0.23287865  0.63968512    -0.00900
C3306       C  0.66665212  0.23255995  0.64732868    -0.06100
H3307       H  0.64677439  0.23957153  0.63721949     0.06300
H3308       H  0.67955335  0.23083247  0.64040177     0.09700
Br3309     Br  0.64879120  0.25276051  0.65568586    -0.05800
Br3310     Br  0.63967683  0.20948166  0.66549312    -0.02800
Br3311     Br  0.65458448  0.24269147  0.61914115     0.00100
Br3312     Br  0.67177008  0.22894626  0.65884269    -0.04300
C3313       C  0.53851597  0.67019276  0.15143899    -0.11700
C3314       C  0.54781768  0.67057770  0.14872988     0.03800
C3315       C  0.55446221  0.67393257  0.15481332    -0.12200
C3316       C  0.55193561  0.67693355  0.16356565     0.18600
C3317       C  0.54266899  0.67659370  0.16622547    -0.09300
C3318       C  0.53607711  0.67323041  0.16021071    -0.02200
H3319       H  0.56158377  0.67430751  0.15268453     0.05200
C3320       C  0.55889780  0.68062257  0.16988305     0.20600
H3321       H  0.52897590  0.67300092  0.16242401     0.10300
C3322       C  0.56114159  0.68989729  0.16943793    -0.15600
C3323       C  0.56684271  0.69387948  0.17602154     0.03300
C3324       C  0.57037434  0.68852167  0.18323575    -0.10900
C3325       C  0.56833345  0.67915621  0.18346186    -0.00900
C3326       C  0.56261419  0.67521034  0.17689387    -0.06100
H3327       H  0.55831175  0.69408571  0.16402744     0.06300
H3328       H  0.57103863  0.67491320  0.18889089     0.09700
Br3329     Br  0.53867727  0.68085661  0.17796807    -0.05800
Br3330     Br  0.55167829  0.66730015  0.13664386    -0.02800
Br3331     Br  0.56991454  0.70649870  0.17445488     0.00100
Br3332     Br  0.55982448  0.66246628  0.17787236    -0.04300
C3333       C  0.50179808  0.58716586  0.07156182    -0.11700
C3334       C  0.50975007  0.59204626  0.07412421     0.03800
C3335       C  0.50928177  0.59854212  0.08110624    -0.12200
C3336       C  0.50105621  0.60014737  0.08585071     0.18600
C3337       C  0.49313868  0.59518244  0.08339175    -0.09300
C3338       C  0.49353087  0.58885599  0.07622432    -0.02200
H3339       H  0.51538721  0.60239317  0.08284082     0.05200
C3340       C  0.50087129  0.60721538  0.09312412     0.20600
H3341       H  0.48740625  0.58505422  0.07445350     0.10300
C3342       C  0.49546332  0.61505614  0.09191628    -0.15600
C3343       C  0.49550685  0.62209724  0.09838190     0.03300
C3344       C  0.50103241  0.62135591  0.10627256    -0.10900
C3345       C  0.50649552  0.61355275  0.10743207    -0.00900
C3346       C  0.50643354  0.60651470  0.10097887    -0.06100
H3347       H  0.49134964  0.61579463  0.08579567     0.06300
H3348       H  0.51077023  0.61287979  0.11344966     0.09700
Br3349     Br  0.48178620  0.59641750  0.08994898    -0.05800
Br3350     Br  0.52135957  0.59046416  0.06808981    -0.02800
Br3351     Br  0.48854237  0.63287209  0.09563541     0.00100
Br3352     Br  0.51389941  0.59598882  0.10334272    -0.04300
C3353       C  0.67793677  0.58477381  0.18339485    -0.11700
C3354       C  0.66855172  0.58235804  0.18304099     0.03800
C3355       C  0.66550606  0.57611442  0.17649943    -0.12200
C3356       C  0.67165756  0.57225066  0.17023192     0.18600
C3357       C  0.68097710  0.57478567  0.17045542    -0.09300
C3358       C  0.68406112  0.58094614  0.17705669    -0.02200
H3359       H  0.65834279  0.57410293  0.17641959     0.05200
C3360       C  0.66835488  0.56511061  0.16395302     0.20600
H3361       H  0.69126721  0.58278967  0.17721411     0.10300
C3362       C  0.66713324  0.56708728  0.15465350    -0.15600
C3363       C  0.66427221  0.56030287  0.14855450     0.03300
C3364       C  0.66252203  0.55142353  0.15179459    -0.10900
C3365       C  0.66372510  0.54950449  0.16111494    -0.00900
C3366       C  0.66662174  0.55624628  0.16717456    -0.06100
H3367       H  0.66858425  0.57387409  0.15211812     0.06300
H3368       H  0.66247758  0.54269246  0.16369295     0.09700
Br3369     Br  0.68976620  0.56978160  0.16207187    -0.05800
Br3370     Br  0.65970872  0.58676610  0.19171604    -0.02800
Br3371     Br  0.66366587  0.56329281  0.13581653     0.00100
Br3372     Br  0.66853583  0.55293096  0.17971669    -0.04300
C3373       C  0.66527654  0.47940770  0.14779739    -0.11700
C3374       C  0.66668238  0.47909831  0.15732602     0.03800
C3375       C  0.67067910  0.47140170  0.16129299    -0.12200
C3376       C  0.67333992  0.46395500  0.15592317     0.18600
C3377       C  0.67171450  0.46413561  0.14645120    -0.09300
C3378       C  0.66765661  0.47182367  0.14246096    -0.02200
H3379       H  0.67176176  0.47122756  0.16861091     0.05200
C3380       C  0.67787956  0.45614675  0.16040603     0.20600
H3381       H  0.66661936  0.47199538  0.13513822     0.10300
C3382       C  0.67303017  0.44798374  0.16162340    -0.15600
C3383       C  0.67692977  0.44070650  0.16645694     0.03300
C3384       C  0.68581524  0.44160495  0.17023006    -0.10900
C3385       C  0.69066369  0.44977217  0.16890885    -0.00900
C3386       C  0.68680239  0.45697706  0.16399247    -0.06100
H3387       H  0.66611331  0.44735078  0.15896422     0.06300
H3388       H  0.69754383  0.45052408  0.17162519     0.09700
Br3389     Br  0.67534676  0.45425366  0.13868282    -0.05800
Br3390     Br  0.66287417  0.48874546  0.16533879    -0.02800
Br3391     Br  0.66951576  0.43003783  0.16822517     0.00100
Br3392     Br  0.69404163  0.46775483  0.16215861    -0.04300
C3393       C  0.54969482  0.52469245  0.05886124    -0.11700
C3394       C  0.54055621  0.52280086  0.05620057     0.03800
C3395       C  0.53407340  0.52985355  0.05584356    -0.12200
C3396       C  0.53648715  0.53878374  0.05822332     0.18600
C3397       C  0.54550902  0.54065669  0.06107460    -0.09300
C3398       C  0.55202428  0.53365262  0.06135852    -0.02200
H3399       H  0.52706769  0.52834497  0.05385024     0.05200
C3400       C  0.52942560  0.54601128  0.05800609     0.20600
H3401       H  0.55897258  0.53524625  0.06347619     0.10300
C3402       C  0.52500012  0.54846887  0.06613825    -0.15600
C3403       C  0.51827450  0.55528675  0.06621432     0.03300
C3404       C  0.51595632  0.55984744  0.05803680    -0.10900
C3405       C  0.52031464  0.55726213  0.04986823    -0.00900
C3406       C  0.52700916  0.55040289  0.04980960    -0.06100
H3407       H  0.52671851  0.54498060  0.07243721     0.06300
H3408       H  0.51856432  0.56064444  0.04352064     0.09700
Br3409     Br  0.54921383  0.55269943  0.06458866    -0.05800
Br3410     Br  0.53628011  0.51067475  0.05372874    -0.02800
Br3411     Br  0.51199150  0.55751157  0.07753079     0.00100
Br3412     Br  0.53275806  0.54728907  0.03843738    -0.04300
C3413       C  0.57729779  0.51210010  0.07350802    -0.11700
C3414       C  0.57529144  0.51536036  0.08240310     0.03800
C3415       C  0.58231082  0.51610766  0.08889474    -0.12200
C3416       C  0.59137005  0.51373872  0.08672557     0.18600
C3417       C  0.59338429  0.51036540  0.07795654    -0.09300
C3418       C  0.58637892  0.50952252  0.07146025    -0.02200
H3419       H  0.58070036  0.51857432  0.09568475     0.05200
C3420       C  0.59860797  0.51464326  0.09375279     0.20600
H3421       H  0.58808974  0.50700426  0.06471683     0.10300
C3422       C  0.59921503  0.50810977  0.10070581    -0.15600
C3423       C  0.60624537  0.50849889  0.10721746     0.03300
C3424       C  0.61297348  0.51543859  0.10669787    -0.10900
C3425       C  0.61203772  0.52224125  0.09999007    -0.00900
C3426       C  0.60489180  0.52192184  0.09360063    -0.06100
H3427       H  0.59418882  0.50267492  0.10105919     0.06300
H3428       H  0.61698506  0.52773775  0.09958321     0.09700
Br3429     Br  0.60561490  0.50680046  0.07459210    -0.05800
Br3430     Br  0.56310483  0.51849899  0.08638568    -0.02800
Br3431     Br  0.60578870  0.49977918  0.11699545     0.00100
Br3432     Br  0.60387157  0.53160741  0.08485098    -0.04300
C3433       C  0.56462361  0.49753904  0.04558345    -0.11700
C3434       C  0.56891654  0.48893539  0.04672198     0.03800
C3435       C  0.56894754  0.48262472  0.03952692    -0.12200
C3436       C  0.56481790  0.48463897  0.03110357     0.18600
C3437       C  0.56051533  0.49316408  0.02995450    -0.09300
C3438       C  0.56044276  0.49947618  0.03712098    -0.02200
H3439       H  0.57211407  0.47601564  0.04055563     0.05200
C3440       C  0.56477566  0.47763634  0.02375003     0.20600
H3441       H  0.55713953  0.50600080  0.03599998     0.10300
C3442       C  0.55637212  0.47396825  0.02081985    -0.15600
C3443       C  0.55603659  0.46722304  0.01405471     0.03300
C3444       C  0.56425765  0.46396263  0.01006891    -0.10900
C3445       C  0.57267445  0.46756245  0.01310523    -0.00900
C3446       C  0.57298701  0.47434310  0.01983599    -0.06100
H3447       H  0.55002436  0.47628089  0.02392483     0.06300
H3448       H  0.57906138  0.46517048  0.01014417     0.09700
Br3449     Br  0.55486184  0.49665255  0.01863522    -0.05800
Br3450     Br  0.57438494  0.48499431  0.05799001    -0.02800
Br3451     Br  0.54418065  0.46229055  0.01112851     0.00100
Br3452     Br  0.58478907  0.47908549  0.02323065    -0.04300
C3453       C  0.66112630  0.35484318  0.03486193    -0.11700
C3454       C  0.66703776  0.35941517  0.04094666     0.03800
C3455       C  0.67160092  0.35448940  0.04779580    -0.12200
C3456       C  0.67036468  0.34503664  0.04865661     0.18600
C3457       C  0.66430960  0.34052171  0.04271935    -0.09300
C3458       C  0.65978099  0.34541641  0.03588578    -0.02200
H3459       H  0.67630689  0.35799220  0.05231801     0.05200
C3460       C  0.67565035  0.33990349  0.05557053     0.20600
H3461       H  0.65532224  0.34179895  0.03120755     0.10300
C3462       C  0.67126882  0.33704876  0.06360007    -0.15600
C3463       C  0.67605807  0.33208721  0.07023323     0.03300
C3464       C  0.68543178  0.32997049  0.06889783    -0.10900
C3465       C  0.68972430  0.33260577  0.06072188    -0.00900
C3466       C  0.68491225  0.33755075  0.05408787    -0.06100
H3467       H  0.66407451  0.33863526  0.06467092     0.06300
H3468       H  0.69690044  0.33099911  0.05957706     0.09700
Br3469     Br  0.66240834  0.32759780  0.04338662    -0.05800
Br3470     Br  0.66978847  0.37213282  0.03966433    -0.02800
Br3471     Br  0.66928874  0.32789242  0.08067891     0.00100
Br3472     Br  0.69119488  0.34084843  0.04304851    -0.04300
C3473       C  0.65554909  0.35012406  0.96244532    -0.11700
C3474       C  0.66083048  0.35438927  0.95559771     0.03800
C3475       C  0.66510372  0.34908561  0.94887296    -0.12200
C3476       C  0.66410460  0.33957661  0.94883252     0.18600
C3477       C  0.65860525  0.33535639  0.95551303    -0.09300
C3478       C  0.65442193  0.34063019  0.96226763    -0.02200
H3479       H  0.66937127  0.35235868  0.94376964     0.05200
C3480       C  0.66914079  0.33409721  0.94203060     0.20600
H3481       H  0.65044638  0.33727874  0.96755222     0.10300
C3482       C  0.67862616  0.33277319  0.94306839    -0.15600
C3483       C  0.68356919  0.32733198  0.93692425     0.03300
C3484       C  0.67893693  0.32300957  0.92962830    -0.10900
C3485       C  0.66943092  0.32449935  0.92859694    -0.00900
C3486       C  0.66456587  0.33003770  0.93465112    -0.06100
H3487       H  0.68219965  0.33601740  0.94868020     0.06300
H3488       H  0.66570269  0.32131449  0.92306054     0.09700
Br3489     Br  0.65701387  0.32237689  0.95597373    -0.05800
Br3490     Br  0.66311753  0.36726432  0.95559942    -0.02800
Br3491     Br  0.69663816  0.32671884  0.93856877     0.00100
Br3492     Br  0.65171592  0.33203992  0.93246921    -0.04300
C3493       C  0.61265470  0.40144576  0.99812386    -0.11700
C3494       C  0.60416717  0.39995437  0.99370713     0.03800
C3495       C  0.59755843  0.40690244  0.99343573    -0.12200
C3496       C  0.59929602  0.41546751  0.99733937     0.18600
C3497       C  0.60778247  0.41694181  0.00175711    -0.09300
C3498       C  0.61430922  0.40993007  0.00221167    -0.02200
H3499       H  0.59100121  0.40560486  0.99018939     0.05200
C3500       C  0.59207416  0.42264997  0.99701523     0.20600
H3501       H  0.62082655  0.41120120  0.00554657     0.10300
C3502       C  0.58836197  0.42593381  0.00522014    -0.15600
C3503       C  0.58159741  0.43272771  0.00526324     0.03300
C3504       C  0.57824386  0.43629866  0.99692043    -0.10900
C3505       C  0.58183299  0.43285032  0.98869650    -0.00900
C3506       C  0.58872739  0.42616200  0.98868639    -0.06100
H3507       H  0.59074145  0.42316241  0.01166185     0.06300
H3508       H  0.57941835  0.43552181  0.98222765     0.09700
Br3509     Br  0.61101687  0.42855860  0.00683053    -0.05800
Br3510     Br  0.60100939  0.38843448  0.98836209    -0.02800
Br3511     Br  0.57696600  0.43640228  0.01698608     0.00100
Br3512     Br  0.59366738  0.42239614  0.97713106    -0.04300
C3513       C  0.53512123  0.35150579  0.83821335    -0.11700
C3514       C  0.54250634  0.35627712  0.83418810     0.03800
C3515       C  0.54990700  0.35143552  0.83039884    -0.12200
C3516       C  0.55001980  0.34186815  0.83048872     0.18600
C3517       C  0.54261796  0.33712239  0.83442800    -0.09300
C3518       C  0.53527123  0.34193362  0.83823588    -0.02200
H3519       H  0.55552777  0.35513054  0.82725992     0.05200
C3520       C  0.55784884  0.33685166  0.82644763     0.20600
H3521       H  0.52960634  0.33816054  0.84119932     0.10300
C3522       C  0.56422315  0.33266576  0.83225451    -0.15600
C3523       C  0.57124792  0.32714938  0.82876968     0.03300
C3524       C  0.57214698  0.32594285  0.81920788    -0.10900
C3525       C  0.56573373  0.33020681  0.81341986    -0.00900
C3526       C  0.55860494  0.33556462  0.81696351    -0.06100
H3527       H  0.56350471  0.33342349  0.83958119     0.06300
H3528       H  0.56620636  0.32930923  0.80609474     0.09700
Br3529     Br  0.54209458  0.32405147  0.83443622    -0.05800
Br3530     Br  0.54245441  0.36929370  0.83296433    -0.02800
Br3531     Br  0.57854905  0.32071534  0.83759563     0.00100
Br3532     Br  0.54974182  0.34056822  0.80866370    -0.04300
C3533       C  0.51515624  0.44677784  0.94858048    -0.11700
C3534       C  0.52437494  0.44460324  0.94639333     0.03800
C3535       C  0.53124501  0.44521623  0.95309929    -0.12200
C3536       C  0.52913608  0.44787303  0.96207726     0.18600
C3537       C  0.51995793  0.45003157  0.96426666    -0.09300
C3538       C  0.51309910  0.44951771  0.95756299    -0.02200
H3539       H  0.53825922  0.44366823  0.95129690     0.05200
C3540       C  0.53659668  0.44842079  0.96902843     0.20600
H3541       H  0.50613498  0.45111106  0.95942552     0.10300
C3542       C  0.53885964  0.45688339  0.97287654    -0.15600
C3543       C  0.54574380  0.45765539  0.97954249     0.03300
C3544       C  0.55065383  0.44981547  0.98245683    -0.10900
C3545       C  0.54843959  0.44137197  0.97844552    -0.00900
C3546       C  0.54148580  0.44062908  0.97186057    -0.06100
H3547       H  0.53524469  0.46293071  0.97066904     0.06300
H3548       H  0.55198788  0.43525568  0.98056633     0.09700
Br3549     Br  0.51634008  0.45335293  0.97642450    -0.05800
Br3550     Br  0.52820229  0.44126594  0.93429704    -0.02800
Br3551     Br  0.54821580  0.46973662  0.98396372     0.00100
Br3552     Br  0.53860700  0.42872142  0.96727528    -0.04300
C3553       C  0.49954293  0.39773610  0.88731048    -0.11700
C3554       C  0.50683673  0.39850856  0.89365625     0.03800
C3555       C  0.50677931  0.40548947  0.90019593    -0.12200
C3556       C  0.49938852  0.41161282  0.90092041     0.18600
C3557       C  0.49202656  0.41076236  0.89469310    -0.09300
C3558       C  0.49217905  0.40392349  0.88799160    -0.02200
H3559       H  0.51250395  0.40603557  0.90488833     0.05200
C3560       C  0.49953981  0.41877968  0.90819163     0.20600
H3561       H  0.48648133  0.40346860  0.88326124     0.10300
C3562       C  0.49886770  0.42802655  0.90574580    -0.15600
C3563       C  0.49902617  0.43492746  0.91237354     0.03300
C3564       C  0.50020200  0.43268993  0.92168047    -0.10900
C3565       C  0.50108886  0.42347940  0.92412626    -0.00900
C3566       C  0.50062308  0.41655683  0.91753238    -0.06100
H3567       H  0.49824783  0.42990255  0.89861679     0.06300
H3568       H  0.50189166  0.42163736  0.93124837     0.09700
Br3569     Br  0.48137686  0.41847834  0.89523133    -0.05800
Br3570     Br  0.51666584  0.38981183  0.89446931    -0.02800
Br3571     Br  0.49805391  0.44731692  0.90825317     0.00100
Br3572     Br  0.50097246  0.40417436  0.92177432    -0.04300
C3573       C  0.34437530  0.54797913  0.83584090    -0.11700
C3574       C  0.34142886  0.55606679  0.84018596     0.03800
C3575       C  0.33747861  0.56310374  0.83501068    -0.12200
C3576       C  0.33630284  0.56221852  0.82554381     0.18600
C3577       C  0.33952520  0.55431122  0.82115825    -0.09300
C3578       C  0.34348711  0.54729431  0.82629693    -0.02200
H3579       H  0.33496921  0.56915550  0.83844047     0.05200
C3580       C  0.33122641  0.56937471  0.82047920     0.20600
H3581       H  0.34577750  0.54119346  0.82280762     0.10300
C3582       C  0.33534669  0.57788718  0.81896312    -0.15600
C3583       C  0.33051297  0.58491158  0.81458033     0.03300
C3584       C  0.32141256  0.58343829  0.81160687    -0.10900
C3585       C  0.31738388  0.57486102  0.81296478    -0.00900
C3586       C  0.32215383  0.56790293  0.81746127    -0.06100
H3587       H  0.34232371  0.57907907  0.82124457     0.06300
H3588       H  0.31035306  0.57367825  0.81084643     0.09700
Br3589     Br  0.33854368  0.55274432  0.80818314    -0.05800
Br3590     Br  0.34167582  0.55758133  0.85319067    -0.02800
Br3591     Br  0.33674252  0.59625649  0.81254428     0.00100
Br3592     Br  0.31576609  0.55671394  0.81985571    -0.04300
C3593       C  0.45369365  0.49632782  0.93221464    -0.11700
C3594       C  0.46154898  0.49600300  0.92661080     0.03800
C3595       C  0.46776745  0.48874416  0.92741855    -0.12200
C3596       C  0.46626759  0.48169463  0.93374605     0.18600
C3597       C  0.45839518  0.48203721  0.93936553    -0.09300
C3598       C  0.45220231  0.48933220  0.93858255    -0.02200
H3599       H  0.47382741  0.48861049  0.92311578     0.05200
C3600       C  0.47305314  0.47413613  0.93442528     0.20600
H3601       H  0.44616767  0.48951801  0.94291860     0.10300
C3602       C  0.47857412  0.47335313  0.94222695    -0.15600
C3603       C  0.48529533  0.46651820  0.94297096     0.03300
C3604       C  0.48666121  0.46023091  0.93570401    -0.10900
C3605       C  0.48095454  0.46103119  0.92795512    -0.00900
C3606       C  0.47426498  0.46786262  0.92727437    -0.06100
H3607       H  0.47767486  0.47815377  0.94777794     0.06300
H3608       H  0.48171527  0.45636859  0.92227685     0.09700
Br3609     Br  0.45566803  0.47256084  0.94798353    -0.05800
Br3610     Br  0.46415631  0.50545360  0.91793788    -0.02800
Br3611     Br  0.49202696  0.46628822  0.95425342     0.00100
Br3612     Br  0.46680644  0.46823502  0.91647963    -0.04300
C3613       C  0.39007256  0.51174902  0.88513021    -0.11700
C3614       C  0.38944000  0.51632261  0.89358191     0.03800
C3615       C  0.39692990  0.51631000  0.89961239    -0.12200
C3616       C  0.40517611  0.51185680  0.89736598     0.18600
C3617       C  0.40580949  0.50729314  0.88891477    -0.09300
C3618       C  0.39828126  0.50720532  0.88293081    -0.02200
H3619       H  0.39627724  0.51969283  0.90615377     0.05200
C3620       C  0.41285050  0.51169298  0.90409754     0.20600
H3621       H  0.39890236  0.50371264  0.87644536     0.10300
C3622       C  0.41536935  0.50339019  0.90815903    -0.15600
C3623       C  0.42233700  0.50296404  0.91476090     0.03300
C3624       C  0.42697726  0.51099001  0.91746012    -0.10900
C3625       C  0.42440126  0.51930903  0.91341149    -0.00900
C3626       C  0.41744964  0.51970658  0.90678443    -0.06100
H3627       H  0.41176535  0.49720867  0.90629016     0.06300
H3628       H  0.42787483  0.52554168  0.91534898     0.09700
Br3629     Br  0.41693887  0.50140067  0.88508734    -0.05800
Br3630     Br  0.37831257  0.52214819  0.89751201    -0.02800
Br3631     Br  0.42462003  0.49131709  0.92030894     0.00100
Br3632     Br  0.41466317  0.53131607  0.90141159    -0.04300
C3633       C  0.44093559  0.55894513  0.97996785    -0.11700
C3634       C  0.43706784  0.56082125  0.97128574     0.03800
C3635       C  0.43725763  0.55418447  0.96439196    -0.12200
C3636       C  0.44100311  0.54550042  0.96594196     0.18600
C3637       C  0.44479652  0.54358465  0.97460283    -0.09300
C3638       C  0.44482935  0.55028266  0.98144153    -0.02200
H3639       H  0.43447064  0.55583102  0.95773083     0.05200
C3640       C  0.44102093  0.53861276  0.95842724     0.20600
H3641       H  0.44775541  0.54862073  0.98803854     0.10300
C3642       C  0.44941648  0.53508451  0.95525323    -0.15600
C3643       C  0.44971904  0.52844236  0.94836908     0.03300
C3644       C  0.44147469  0.52520104  0.94442051    -0.10900
C3645       C  0.43310226  0.52898728  0.94737017    -0.00900
C3646       C  0.43281138  0.53558657  0.95428828    -0.06100
H3647       H  0.45580174  0.53753973  0.95814783     0.06300
H3648       H  0.42669416  0.52663816  0.94443857     0.09700
Br3649     Br  0.44959754  0.53177075  0.97762703    -0.05800
Br3650     Br  0.43181137  0.57239232  0.96809504    -0.02800
Br3651     Br  0.46164985  0.52451719  0.94434006     0.00100
Br3652     Br  0.42095184  0.53989644  0.95808632    -0.04300
C3653       C  0.45640228  0.57247833  0.00689980    -0.11700
C3654       C  0.45996196  0.58077079  0.01032535     0.03800
C3655       C  0.46650767  0.58068395  0.01732962    -0.12200
C3656       C  0.46973094  0.57245610  0.02098072     0.18600
C3657       C  0.46643105  0.56417156  0.01739870    -0.09300
C3658       C  0.45986608  0.56422973  0.01038272    -0.02200
H3659       H  0.46911909  0.58708478  0.01994310     0.05200
C3660       C  0.47640715  0.57270852  0.02862553     0.20600
H3661       H  0.45721690  0.55780282  0.00787907     0.10300
C3662       C  0.47334930  0.57506170  0.03740597    -0.15600
C3663       C  0.47946060  0.57539176  0.04480558     0.03300
C3664       C  0.48888239  0.57346468  0.04344037    -0.10900
C3665       C  0.49189678  0.57112905  0.03461253    -0.00900
C3666       C  0.48577598  0.57077373  0.02725288    -0.06100
H3667       H  0.46613111  0.57650185  0.03853131     0.06300
H3668       H  0.49908968  0.56963822  0.03339836     0.09700
Br3669     Br  0.47037659  0.55264424  0.02219677    -0.05800
Br3670     Br  0.45653609  0.59244536  0.00544143    -0.02800
Br3671     Br  0.47436876  0.57778939  0.05666412     0.00100
Br3672     Br  0.49054885  0.56778511  0.01541091    -0.04300
C3673       C  0.34265698  0.66461940  0.96027007    -0.11700
C3674       C  0.33298765  0.66431353  0.95943585     0.03800
C3675       C  0.32863618  0.66881400  0.95221270    -0.12200
C3676       C  0.33373227  0.67355594  0.94562028     0.18600
C3677       C  0.34340546  0.67354001  0.94619920    -0.09300
C3678       C  0.34779231  0.66907232  0.95347606    -0.02200
H3679       H  0.32120475  0.66865522  0.95175660     0.05200
C3680       C  0.32875166  0.67857887  0.93833806     0.20600
H3681       H  0.35521654  0.66931858  0.95397674     0.10300
C3682       C  0.32890929  0.68814873  0.93823998    -0.15600
C3683       C  0.32385626  0.69311299  0.93176082     0.03300
C3684       C  0.31842993  0.68847712  0.92525496    -0.10900
C3685       C  0.31840094  0.67888686  0.92532814    -0.00900
C3686       C  0.32346091  0.67395426  0.93177462    -0.06100
H3687       H  0.33297468  0.69177452  0.94325322     0.06300
H3688       H  0.31432292  0.67516702  0.92039969     0.09700
Br3689     Br  0.35087217  0.67944167  0.93716247    -0.05800
Br3690     Br  0.32534879  0.65748770  0.96766944    -0.02800
Br3691     Br  0.32515717  0.70612236  0.93182104     0.00100
Br3692     Br  0.32306908  0.66089084  0.93121121    -0.04300
C3693       C  0.42674935  0.58498625  0.99653767    -0.11700
C3694       C  0.42503349  0.58982537  0.00477175     0.03800
C3695       C  0.41825152  0.59663325  0.00504075    -0.12200
C3696       C  0.41296013  0.59873456  0.99731751     0.18600
C3697       C  0.41448449  0.59379428  0.98921272    -0.09300
C3698       C  0.42126420  0.58702232  0.98889147    -0.02200
H3699       H  0.41713072  0.60036574  0.01132556     0.05200
C3700       C  0.40614422  0.60631113  0.99769310     0.20600
H3701       H  0.42232224  0.58344117  0.98252724     0.10300
C3702       C  0.40750686  0.61402141  0.99217631    -0.15600
C3703       C  0.40112869  0.62117964  0.99203180     0.03300
C3704       C  0.39317927  0.62077723  0.99756051    -0.10900
C3705       C  0.39198098  0.61320041  0.00333530    -0.00900
C3706       C  0.39834097  0.60599470  0.00340935    -0.06100
H3707       H  0.41359216  0.61446350  0.98792881     0.06300
H3708       H  0.38594716  0.61277193  0.00765335     0.09700
Br3709     Br  0.40737941  0.59593340  0.97838447    -0.05800
Br3710     Br  0.43129017  0.58738753  0.01607923    -0.02800
Br3711     Br  0.40400258  0.63154286  0.98455863     0.00100
Br3712     Br  0.39583615  0.59569631  0.01110710    -0.04300
C3713       C  0.31971372  0.43839025  0.81450075    -0.11700
C3714       C  0.31485357  0.44408022  0.82062099     0.03800
C3715       C  0.31956595  0.45074788  0.82566222    -0.12200
C3716       C  0.32912335  0.45179440  0.82484448     0.18600
C3717       C  0.33403844  0.44574316  0.81920660    -0.09300
C3718       C  0.32934367  0.43919148  0.81406823    -0.02200
H3719       H  0.31573975  0.45521339  0.83016559     0.05200
C3720       C  0.33377708  0.45952229  0.82949673     0.20600
H3721       H  0.33326757  0.43480038  0.80957957     0.10300
C3722       C  0.33485106  0.45949545  0.83903009    -0.15600
C3723       C  0.33903350  0.46686018  0.84354912     0.03300
C3724       C  0.34217025  0.47446492  0.83850034    -0.10900
C3725       C  0.34104481  0.47444254  0.82896687    -0.00900
C3726       C  0.33692548  0.46709399  0.82447495    -0.06100
H3727       H  0.33234397  0.45376246  0.84297521     0.06300
H3728       H  0.34334164  0.48022168  0.82496299     0.09700
Br3729     Br  0.34719476  0.44613823  0.81836215    -0.05800
Br3730     Br  0.30193867  0.44269692  0.82287518    -0.02800
Br3731     Br  0.33957999  0.46645248  0.85663082     0.00100
Br3732     Br  0.33540997  0.46788647  0.81147416    -0.04300
C3733       C  0.42433229  0.33223505  0.81386107    -0.11700
C3734       C  0.42560537  0.34178102  0.81360697     0.03800
C3735       C  0.43252089  0.34581504  0.81888136    -0.12200
C3736       C  0.43821908  0.34051773  0.82449499     0.18600
C3737       C  0.43679572  0.33103387  0.82495006    -0.09300
C3738       C  0.42996123  0.32696451  0.81959290    -0.02200
H3739       H  0.43361728  0.35310520  0.81843507     0.05200
C3740       C  0.44598686  0.34491350  0.82933446     0.20600
H3741       H  0.42904991  0.31964276  0.81988947     0.10300
C3742       C  0.44563102  0.34611387  0.83883476    -0.15600
C3743       C  0.45307552  0.34991040  0.84359309     0.03300
C3744       C  0.46105041  0.35263969  0.83880040    -0.10900
C3745       C  0.46129365  0.35151656  0.82926231    -0.00900
C3746       C  0.45387942  0.34771357  0.82454131    -0.06100
H3747       H  0.43960858  0.34390254  0.84258299     0.06300
H3748       H  0.46733702  0.35353422  0.82543988     0.09700
Br3749     Br  0.44425098  0.32334236  0.83252778    -0.05800
Br3750     Br  0.41870761  0.34960166  0.80562998    -0.02800
Br3751     Br  0.45221893  0.35038233  0.85665288     0.00100
Br3752     Br  0.45501429  0.34608300  0.81158112    -0.04300
C3753       C  0.32606645  0.37294237  0.77967843    -0.11700
C3754       C  0.32240357  0.36403660  0.78021455     0.03800
C3755       C  0.32827320  0.35648385  0.77956449    -0.12200
C3756       C  0.33776201  0.35765667  0.77839618     0.18600
C3757       C  0.34136585  0.36650701  0.77755214    -0.09300
C3758       C  0.33553736  0.37404513  0.77820577    -0.02200
H3759       H  0.32549122  0.34968424  0.78037540     0.05200
C3760       C  0.34399373  0.34974934  0.77918003     0.20600
H3761       H  0.33845937  0.38082065  0.77777088     0.10300
C3762       C  0.34801662  0.34600494  0.77132946    -0.15600
C3763       C  0.35503990  0.33948307  0.77202395     0.03300
C3764       C  0.35806925  0.33658302  0.78073531    -0.10900
C3765       C  0.35369132  0.34008559  0.78853996    -0.00900
C3766       C  0.34675477  0.34662097  0.78782495    -0.06100
H3767       H  0.34599940  0.34850071  0.76465961     0.06300
H3768       H  0.35589375  0.33795367  0.79527748     0.09700
Br3769     Br  0.35430544  0.36862190  0.77613977    -0.05800
Br3770     Br  0.30969955  0.36170973  0.78286329    -0.02800
Br3771     Br  0.36085756  0.33572324  0.76088599     0.00100
Br3772     Br  0.34176404  0.35163938  0.79887143    -0.04300
C3773       C  0.40712076  0.23801797  0.73778780    -0.11700
C3774       C  0.41560884  0.24217197  0.74001622     0.03800
C3775       C  0.41573179  0.25050694  0.74474270    -0.12200
C3776       C  0.40752862  0.25475899  0.74746948     0.18600
C3777       C  0.39909833  0.25053110  0.74540743    -0.09300
C3778       C  0.39895477  0.24231482  0.74059677    -0.02200
H3779       H  0.42226037  0.25365733  0.74635813     0.05200
C3780       C  0.40772741  0.26368443  0.75226219     0.20600
H3781       H  0.39236033  0.23928969  0.73902484     0.10300
C3782       C  0.40392723  0.27132353  0.74790659    -0.15600
C3783       C  0.40285353  0.27959637  0.75253112     0.03300
C3784       C  0.40557550  0.28035483  0.76175575    -0.10900
C3785       C  0.40998437  0.27289357  0.76591234    -0.00900
C3786       C  0.41107069  0.26460292  0.76125018    -0.06100
H3787       H  0.40158732  0.27077639  0.74090672     0.06300
H3788       H  0.41224084  0.27337736  0.77294134     0.09700
Br3789     Br  0.38754326  0.25553285  0.74930384    -0.05800
Br3790     Br  0.42725307  0.23656950  0.73748523    -0.02800
Br3791     Br  0.39799272  0.28968514  0.74571224     0.00100
Br3792     Br  0.41662189  0.25459282  0.76763540    -0.04300
C3793       C  0.33654174  0.13826594  0.73035161    -0.11700
C3794       C  0.34608230  0.13730020  0.73192738     0.03800
C3795       C  0.35176007  0.14498812  0.73183922    -0.12200
C3796       C  0.34810345  0.15368111  0.73026764     0.18600
C3797       C  0.33855811  0.15472258  0.72919436    -0.09300
C3798       C  0.33285324  0.14705579  0.72929120    -0.02200
H3799       H  0.35910532  0.14415623  0.73273002     0.05200
C3800       C  0.35444608  0.16135905  0.72865704     0.20600
H3801       H  0.32555675  0.14795028  0.72813851     0.10300
C3802       C  0.35571406  0.16435988  0.71966919    -0.15600
C3803       C  0.36209417  0.17115248  0.71762158     0.03300
C3804       C  0.36744628  0.17502118  0.72466594    -0.10900
C3805       C  0.36592729  0.17224341  0.73373069    -0.00900
C3806       C  0.35950671  0.16541566  0.73575312    -0.06100
H3807       H  0.35175836  0.16132427  0.71419413     0.06300
H3808       H  0.36993651  0.17518295  0.73921462     0.09700
Br3809     Br  0.33308742  0.16647665  0.72733455    -0.05800
Br3810     Br  0.35178347  0.12577226  0.73450030    -0.02800
Br3811     Br  0.36277997  0.17510400  0.70512688     0.00100
Br3812     Br  0.35784431  0.16182604  0.74823794    -0.04300
C3813       C  0.07245117  0.33182274  0.68220624    -0.11700
C3814       C  0.06502298  0.32766937  0.67759951     0.03800
C3815       C  0.05889930  0.33301242  0.67251212    -0.12200
C3816       C  0.06010416  0.34246294  0.67175581     0.18600
C3817       C  0.06774968  0.34655920  0.67594499    -0.09300
C3818       C  0.07382744  0.34125836  0.68111495    -0.02200
H3819       H  0.05309274  0.32979029  0.66920344     0.05200
C3820       C  0.05292579  0.34799191  0.66720014     0.20600
H3821       H  0.07954249  0.34459168  0.68446082     0.10300
C3822       C  0.04718944  0.35346353  0.67259719    -0.15600
C3823       C  0.03987224  0.35829117  0.66872705     0.03300
C3824       C  0.03820557  0.35772533  0.65924841    -0.10900
C3825       C  0.04415381  0.35249397  0.65379798    -0.00900
C3826       C  0.05141602  0.34757251  0.65771141    -0.06100
H3827       H  0.04832834  0.35385842  0.67989721     0.06300
H3828       H  0.04295921  0.35197657  0.64651678     0.09700
Br3829     Br  0.07018098  0.35935594  0.67471357    -0.05800
Br3830     Br  0.06313274  0.31472856  0.67747377    -0.02800
Br3831     Br  0.03260428  0.36576427  0.67670751     0.00100
Br3832     Br  0.05904986  0.34033451  0.64987254    -0.04300
C3833       C  0.16741761  0.44234924  0.69502445    -0.11700
C3834       C  0.15812614  0.44503678  0.69597851     0.03800
C3835       C  0.15419941  0.45107767  0.68966956    -0.12200
C3836       C  0.15934307  0.45452748  0.68234659     0.18600
C3837       C  0.16865719  0.45202292  0.68149832    -0.09300
C3838       C  0.17260260  0.44598940  0.68779456    -0.02200
H3839       H  0.14710601  0.45316723  0.69052380     0.05200
C3840       C  0.15506923  0.46120275  0.67603129     0.20600
H3841       H  0.17974497  0.44406666  0.68697440     0.10300
C3842       C  0.15315213  0.47000113  0.67923030    -0.15600
C3843       C  0.14988622  0.47674920  0.67330770     0.03300
C3844       C  0.14852209  0.47476271  0.66398607    -0.10900
C3845       C  0.14985128  0.46580264  0.66090272    -0.00900
C3846       C  0.15307368  0.45902026  0.66686712    -0.06100
H3847       H  0.15440709  0.47168212  0.68632253     0.06300
H3848       H  0.14872598  0.46416196  0.65378103     0.09700
Br3849     Br  0.17635611  0.45691931  0.67204746    -0.05800
Br3850     Br  0.15060513  0.44129126  0.70608519    -0.02800
Br3851     Br  0.14720832  0.48854278  0.67831758     0.00100
Br3852     Br  0.15470274  0.44689609  0.66224610    -0.04300
C3853       C  0.26603178  0.41515364  0.76442850    -0.11700
C3854       C  0.26503330  0.42216340  0.75790511     0.03800
C3855       C  0.25721003  0.42243557  0.75231514    -0.12200
C3856       C  0.25026338  0.41585051  0.75317351     0.18600
C3857       C  0.25117987  0.40897113  0.75983513    -0.09300
C3858       C  0.25904713  0.40861771  0.76531269    -0.02200
H3859       H  0.25662895  0.42769097  0.74714610     0.05200
C3860       C  0.24232246  0.41594992  0.74681696     0.20600
H3861       H  0.25971549  0.40320483  0.77030667     0.10300
C3862       C  0.24136571  0.40883328  0.74049796    -0.15600
C3863       C  0.23367988  0.40832333  0.73478366     0.03300
C3864       C  0.22674108  0.41503249  0.73532578    -0.10900
C3865       C  0.22792838  0.42240272  0.74132832    -0.00900
C3866       C  0.23562541  0.42288746  0.74706695    -0.06100
H3867       H  0.24659350  0.40358623  0.74008618     0.06300
H3868       H  0.22267192  0.42761111  0.74182938     0.09700
Br3869     Br  0.24177466  0.40001829  0.76184000    -0.05800
Br3870     Br  0.27445238  0.43106532  0.75583626    -0.02800
Br3871     Br  0.23324544  0.39852121  0.72611718     0.00100
Br3872     Br  0.23641050  0.43283276  0.75551896    -0.04300
C3873       C  0.16461034  0.37441557  0.72441094    -0.11700
C3874       C  0.15531166  0.37405836  0.72714021     0.03800
C3875       C  0.15039996  0.36591983  0.72633074    -0.12200
C3876       C  0.15466815  0.35793352  0.72319899     0.18600
C3877       C  0.16411898  0.35812897  0.72108422    -0.09300
C3878       C  0.16898864  0.36633393  0.72165450    -0.02200
H3879       H  0.14316272  0.36584858  0.72807379     0.05200
C3880       C  0.14895994  0.34972639  0.72157333     0.20600
H3881       H  0.17616486  0.36643462  0.71968671     0.10300
C3882       C  0.14826899  0.34628681  0.71266367    -0.15600
C3883       C  0.14220440  0.33920184  0.71059965     0.03300
C3884       C  0.13646953  0.33558059  0.71748593    -0.10900
C3885       C  0.13747791  0.33872413  0.72648744    -0.00900
C3886       C  0.14365253  0.34572853  0.72856734    -0.06100
H3887       H  0.15234604  0.34925806  0.70723126     0.06300
H3888       H  0.13320085  0.33597827  0.73188262     0.09700
Br3889     Br  0.17070255  0.34736895  0.71750152    -0.05800
Br3890     Br  0.14907446  0.38424668  0.73256163    -0.02800
Br3891     Br  0.14235899  0.33457011  0.69833628     0.00100
Br3892     Br  0.14454923  0.34960170  0.74105030    -0.04300
C3893       C  0.17024102  0.07658172  0.80554701    -0.11700
C3894       C  0.16219403  0.07139564  0.80427864     0.03800
C3895       C  0.15878014  0.06602571  0.81141158    -0.12200
C3896       C  0.16310168  0.06586318  0.81998102     0.18600
C3897       C  0.17112356  0.07111055  0.82127733    -0.09300
C3898       C  0.17467670  0.07632742  0.81405327    -0.02200
H3899       H  0.15274410  0.06187085  0.81023491     0.05200
C3900       C  0.15945446  0.05961805  0.82712821     0.20600
H3901       H  0.18076992  0.08041606  0.81516350     0.10300
C3902       C  0.16498832  0.05242109  0.83021302    -0.15600
C3903       C  0.16137020  0.04552469  0.83574696     0.03300
C3904       C  0.15192953  0.04554437  0.83803413    -0.10900
C3905       C  0.14656117  0.05310649  0.83555686    -0.00900
C3906       C  0.15026385  0.06013604  0.83019108    -0.06100
H3907       H  0.17210597  0.05200448  0.82807425     0.06300
H3908       H  0.13936320  0.05335914  0.83743773     0.09700
Br3909     Br  0.17716943  0.07178416  0.83289488    -0.05800
Br3910     Br  0.15580991  0.07107203  0.79282033    -0.02800
Br3911     Br  0.16976284  0.03643975  0.84020136     0.00100
Br3912     Br  0.14250721  0.07027743  0.82716337    -0.04300
C3913       C  0.22540111  0.10353863  0.75964772    -0.11700
C3914       C  0.23054956  0.11144918  0.75747885     0.03800
C3915       C  0.23934288  0.11062576  0.75365649    -0.12200
C3916       C  0.24323204  0.10206349  0.75194542     0.18600
C3917       C  0.23826251  0.09417851  0.75429100    -0.09300
C3918       C  0.22944909  0.09495651  0.75810302    -0.02200
H3919       H  0.24319837  0.11672640  0.75200883     0.05200
C3920       C  0.25245754  0.10159964  0.74765327     0.20600
H3921       H  0.22569582  0.08879775  0.75974509     0.10300
C3922       C  0.26029712  0.10312981  0.75300047    -0.15600
C3923       C  0.26905792  0.10347778  0.74901820     0.03300
C3924       C  0.27007106  0.10236064  0.73948964    -0.10900
C3925       C  0.26223612  0.10053985  0.73419878    -0.00900
C3926       C  0.25348099  0.10022413  0.73819202    -0.06100
H3927       H  0.25958391  0.10411319  0.76029897     0.06300
H3928       H  0.26289173  0.09963852  0.72688476     0.09700
Br3929     Br  0.24327952  0.08223163  0.75245280    -0.05800
Br3930     Br  0.22642172  0.12360086  0.76009192    -0.02800
Br3931     Br  0.27941071  0.10500177  0.75698852     0.00100
Br3932     Br  0.24304761  0.09831391  0.73043205    -0.04300
C3933       C  0.03937125  0.17591337  0.85195264    -0.11700
C3934       C  0.04235073  0.18505466  0.85153762     0.03800
C3935       C  0.04871918  0.18771464  0.84489150    -0.12200
C3936       C  0.05222752  0.18137869  0.83864206     0.18600
C3937       C  0.04966634  0.17216548  0.83936035    -0.09300
C3938       C  0.04329952  0.16948863  0.84600296    -0.02200
H3939       H  0.05081021  0.19478818  0.84447209     0.05200
C3940       C  0.05819926  0.18459623  0.83116135     0.20600
H3941       H  0.04108153  0.16244634  0.84621112     0.10300
C3942       C  0.06775049  0.18383965  0.83200050    -0.15600
C3943       C  0.07356970  0.18691739  0.82503385     0.03300
C3944       C  0.06979572  0.19077568  0.81700584    -0.10900
C3945       C  0.06020937  0.19163314  0.81628012    -0.00900
C3946       C  0.05442465  0.18856606  0.82326289    -0.06100
H3947       H  0.07068280  0.18092780  0.83814500     0.06300
H3948       H  0.05718365  0.19453651  0.81018003     0.09700
Br3949     Br  0.05427819  0.16314048  0.83106762    -0.05800
Br3950     Br  0.03812479  0.19413021  0.85998712    -0.02800
Br3951     Br  0.08655508  0.18624992  0.82725987     0.00100
Br3952     Br  0.04139112  0.18975095  0.82166897    -0.04300
C3953       C  0.08900141  0.27964715  0.73528923    -0.11700
C3954       C  0.08910281  0.27949034  0.74491503     0.03800
C3955       C  0.08828859  0.27120173  0.74956659    -0.12200
C3956       C  0.08744167  0.26299108  0.74476396     0.18600
C3957       C  0.08709150  0.26314505  0.73515672    -0.09300
C3958       C  0.08778398  0.27145785  0.73049025    -0.02200
H3959       H  0.08850481  0.27113085  0.75696117     0.05200
C3960       C  0.08750418  0.25431892  0.74989371     0.20600
H3961       H  0.08776574  0.27148446  0.72309280     0.10300
C3962       C  0.07925391  0.24961282  0.75142319    -0.15600
C3963       C  0.07919193  0.24137544  0.75628955     0.03300
C3964       C  0.08751027  0.23773401  0.75964153    -0.10900
C3965       C  0.09573923  0.24248092  0.75807417    -0.00900
C3966       C  0.09577850  0.25072972  0.75331452    -0.06100
H3967       H  0.07286689  0.25233087  0.74877133     0.06300
H3968       H  0.10218248  0.23977985  0.76060783     0.09700
Br3969     Br  0.08628015  0.25212447  0.72816628    -0.05800
Br3970     Br  0.09012182  0.29041260  0.75203407    -0.02800
Br3971     Br  0.06769409  0.23512291  0.75761051     0.00100
Br3972     Br  0.10732477  0.25678630  0.75150551    -0.04300
C3973       C  0.12714191  0.17551948  0.77189367    -0.11700
C3974       C  0.12885096  0.17197287  0.76309327     0.03800
C3975       C  0.13571591  0.16539260  0.76189472    -0.12200
C3976       C  0.14086295  0.16226495  0.76935313     0.18600
C3977       C  0.13937382  0.16602168  0.77805152    -0.09300
C3978       C  0.13257414  0.17260330  0.77925437    -0.02200
H3979       H  0.13677357  0.16240805  0.75521091     0.05200
C3980       C  0.14708510  0.15444216  0.76822430     0.20600
H3981       H  0.13134609  0.17527080  0.78604450     0.10300
C3982       C  0.15659977  0.15584593  0.76815107    -0.15600
C3983       C  0.16268156  0.14845362  0.76832557     0.03300
C3984       C  0.15919291  0.13945585  0.76846009    -0.10900
C3985       C  0.14962823  0.13813151  0.76825484    -0.00900
C3986       C  0.14359196  0.14552131  0.76817437    -0.06100
H3987       H  0.15928821  0.16272657  0.76837054     0.06300
H3988       H  0.14681116  0.13130124  0.76836929     0.09700
Br3989     Br  0.14597470  0.16186756  0.78861197    -0.05800
Br3990     Br  0.12142611  0.17500093  0.75269690    -0.02800
Br3991     Br  0.17551094  0.15124592  0.76945190     0.00100
Br3992     Br  0.13062634  0.14312806  0.76864417    -0.04300
C3993       C  0.64677074  0.18120218  0.53143467    -0.11700
C3994       C  0.65305226  0.17664596  0.53718490     0.03800
C3995       C  0.65822207  0.18160446  0.54355054    -0.12200
C3996       C  0.65721846  0.19109039  0.54436255     0.18600
C3997       C  0.65078235  0.19560745  0.53877992    -0.09300
C3998       C  0.64569785  0.19067934  0.53234351    -0.02200
H3999       H  0.66318329  0.17806814  0.54778026     0.05200
C4000       C  0.66299792  0.19615311  0.55099903     0.20600
H4001       H  0.64091584  0.19428176  0.52796656     0.10300
C4002       C  0.66973371  0.20224124  0.54783602    -0.15600
C4003       C  0.67515136  0.20729144  0.55394418     0.03300
C4004       C  0.67397208  0.20617006  0.56347949    -0.10900
C4005       C  0.66729274  0.19992737  0.56656040    -0.00900
C4006       C  0.66181970  0.19501835  0.56045539    -0.06100
H4007       H  0.67065300  0.20319813  0.54055452     0.06300
H4008       H  0.66621802  0.19889067  0.57380313     0.09700
Br4009     Br  0.64857170  0.20846126  0.53982741    -0.05800
Br4010     Br  0.65546222  0.16383758  0.53612154    -0.02800
Br4011     Br  0.68337063  0.21608069  0.54870790     0.00100
Br4012     Br  0.65246169  0.18721281  0.56537494    -0.04300
C4013       C  0.65316459  0.17202603  0.46101618    -0.11700
C4014       C  0.66268310  0.17241869  0.46277258     0.03800
C4015       C  0.66868404  0.17567306  0.45607305    -0.12200
C4016       C  0.66536521  0.17850354  0.44755415     0.18600
C4017       C  0.65593417  0.17756512  0.44557380    -0.09300
C4018       C  0.64989067  0.17436551  0.45231590    -0.02200
H4019       H  0.67596574  0.17611127  0.45755237     0.05200
C4020       C  0.67190959  0.18237073  0.44086485     0.20600
H4021       H  0.64260341  0.17397066  0.45085759     0.10300
C4022       C  0.67829085  0.17659187  0.43665428    -0.15600
C4023       C  0.68477851  0.18002291  0.43049270     0.03300
C4024       C  0.68488695  0.18942643  0.42836909    -0.10900
C4025       C  0.67867089  0.19524579  0.43283626    -0.00900
C4026       C  0.67224099  0.19179714  0.43906829    -0.06100
H4027       H  0.67828683  0.16938091  0.43825930     0.06300
H4028       H  0.67875064  0.20249063  0.43141064     0.09700
Br4029     Br  0.65107560  0.18053277  0.43376631    -0.05800
Br4030     Br  0.66787315  0.16829854  0.47410196    -0.02800
Br4031     Br  0.69376102  0.17161471  0.42587040     0.00100
Br4032     Br  0.66427267  0.20022543  0.44521781    -0.04300
C4033       C  0.60360036  0.12737370  0.49737236    -0.11700
C4034       C  0.59571724  0.12722064  0.50302214     0.03800
C4035       C  0.58958259  0.11986570  0.50256250    -0.12200
C4036       C  0.59110443  0.11256741  0.49655217     0.18600
C4037       C  0.59889363  0.11276159  0.49083730    -0.09300
C4038       C  0.60501990  0.12011073  0.49126641    -0.02200
H4039       H  0.58351395  0.11988315  0.50685551     0.05200
C4040       C  0.58443601  0.10489550  0.49627410     0.20600
H4041       H  0.61100901  0.12008098  0.48686862     0.10300
C4042       C  0.57928607  0.10333427  0.48831439    -0.15600
C4043       C  0.57293000  0.09616893  0.48785418     0.03300
C4044       C  0.57150392  0.09051400  0.49552125    -0.10900
C4045       C  0.57656437  0.09215634  0.50351101    -0.00900
C4046       C  0.58305136  0.09919007  0.50390232    -0.06100
H4047       H  0.58019649  0.10774031  0.48244054     0.06300
H4048       H  0.57560437  0.08781758  0.50942864     0.09700
Br4049     Br  0.60164863  0.10299728  0.48256051    -0.05800
Br4050     Br  0.59249223  0.13711275  0.51096850    -0.02800
Br4051     Br  0.56603182  0.09473652  0.47678322     0.00100
Br4052     Br  0.59016989  0.10043974  0.51485434    -0.04300
C4053       C  0.51346384  0.07444349  0.54700807    -0.11700
C4054       C  0.52293511  0.07546014  0.54875333     0.03800
C4055       C  0.52923108  0.07512925  0.54151374    -0.12200
C4056       C  0.52625375  0.07390166  0.53247160     0.18600
C4057       C  0.51680285  0.07271463  0.53075992    -0.09300
C4058       C  0.51052996  0.07297973  0.53799269    -0.02200
H4059       H  0.53649744  0.07587870  0.54293310     0.05200
C4060       C  0.53306893  0.07407891  0.52492389     0.20600
H4061       H  0.50328037  0.07225183  0.53652264     0.10300
C4062       C  0.53447004  0.06627276  0.51958147    -0.15600
C4063       C  0.54078708  0.06624529  0.51233770     0.03300
C4064       C  0.54593589  0.07422483  0.51031999    -0.10900
C4065       C  0.54451363  0.08198994  0.51580839    -0.00900
C4066       C  0.53820279  0.08196884  0.52300715    -0.06100
H4067       H  0.53063138  0.06012693  0.52109425     0.06300
H4068       H  0.54825904  0.08822429  0.51446875     0.09700
Br4069     Br  0.51203064  0.07112427  0.51864812    -0.05800
Br4070     Br  0.52769306  0.07685161  0.56088884    -0.02800
Br4071     Br  0.54207280  0.05490762  0.50589202     0.00100
Br4072     Br  0.53663248  0.09304387  0.52981171    -0.04300
C4073       C  0.46235591  0.17132016  0.65402034    -0.11700
C4074       C  0.45383588  0.17367508  0.65007208     0.03800
C4075       C  0.44668284  0.17689491  0.65563773    -0.12200
C4076       C  0.44793528  0.17782728  0.66509238     0.18600
C4077       C  0.45640035  0.17542223  0.66902043    -0.09300
C4078       C  0.46349429  0.17219863  0.66350676    -0.02200
H4079       H  0.44018037  0.17879914  0.65258186     0.05200
C4080       C  0.44043759  0.18131438  0.67089539     0.20600
H4081       H  0.46998110  0.17042214  0.66667068     0.10300
C4082       C  0.43558999  0.17516881  0.67639274    -0.15600
C4083       C  0.42933433  0.17826136  0.68294081     0.03300
C4084       C  0.42771742  0.18772976  0.68394569    -0.10900
C4085       C  0.43248679  0.19385140  0.67828093    -0.00900
C4086       C  0.43882201  0.19071593  0.67181225    -0.06100
H4087       H  0.43700340  0.16793521  0.67585951     0.06300
H4088       H  0.43135943  0.20111756  0.67895072     0.09700
Br4089     Br  0.45869201  0.17672789  0.68186686    -0.05800
Br4090     Br  0.45183069  0.17331887  0.63713609    -0.02800
Br4091     Br  0.42417523  0.16917386  0.69088032     0.00100
Br4092     Br  0.44549920  0.19950604  0.66473848    -0.04300
C4093       C  0.53501823  0.17254507  0.65635233    -0.11700
C4094       C  0.53575122  0.18214170  0.65677071     0.03800
C4095       C  0.54307546  0.18614188  0.66140672    -0.12200
C4096       C  0.54980116  0.18079289  0.66564586     0.18600
C4097       C  0.54912627  0.17122539  0.66525665    -0.09300
C4098       C  0.54180304  0.16716887  0.66055188    -0.02200
H4099       H  0.54359239  0.19350698  0.66163389     0.05200
C4100       C  0.55752144  0.18545996  0.67021879     0.20600
H4101       H  0.54130396  0.15980538  0.66033173     0.10300
C4102       C  0.55806073  0.18549327  0.67978440    -0.15600
C4103       C  0.56488011  0.19051740  0.68429055     0.03300
C4104       C  0.57129589  0.19563098  0.67916070    -0.10900
C4105       C  0.57076164  0.19545788  0.66958079    -0.00900
C4106       C  0.56396217  0.19047636  0.66511552    -0.06100
H4107       H  0.55309246  0.18167379  0.68375423     0.06300
H4108       H  0.57556879  0.19935869  0.66550075     0.09700
Br4109     Br  0.55807827  0.16348451  0.67094572    -0.05800
Br4110     Br  0.52736580  0.19025264  0.65070427    -0.02800
Br4111     Br  0.56529110  0.18973669  0.69736254     0.00100
Br4112     Br  0.56377918  0.19073405  0.65200680    -0.04300
C4113       C  0.50095000  0.12479041  0.60759610    -0.11700
C4114       C  0.50592653  0.11660380  0.60879414     0.03800
C4115       C  0.50586738  0.10995697  0.60192632    -0.12200
C4116       C  0.50092848  0.11131153  0.59381773     0.18600
C4117       C  0.49602469  0.11948753  0.59258073    -0.09300
C4118       C  0.49601178  0.12611138  0.59945877    -0.02200
H4119       H  0.50955452  0.10362411  0.60297892     0.05200
C4120       C  0.50062007  0.10395573  0.58690570     0.20600
H4121       H  0.49219824  0.13236889  0.59840500     0.10300
C4122       C  0.49268375  0.09863301  0.58615639    -0.15600
C4123       C  0.49205159  0.09160987  0.57971276     0.03300
C4124       C  0.49964004  0.08964189  0.57389789    -0.10900
C4125       C  0.50756642  0.09512949  0.57468723    -0.00900
C4126       C  0.50806691  0.10222921  0.58105449    -0.06100
H4127       H  0.48687937  0.10003038  0.59058324     0.06300
H4128       H  0.51345759  0.09394098  0.57032591     0.09700
Br4129     Br  0.48942690  0.12194205  0.58151081    -0.05800
Br4130     Br  0.51230407  0.11377168  0.61991100    -0.02800
Br4131     Br  0.48037431  0.08550082  0.57920812     0.00100
Br4132     Br  0.51892717  0.10962522  0.58132466    -0.04300
C4133       C  0.48506000  0.06221644  0.56046575    -0.11700
C4134       C  0.48244277  0.05738295  0.55249307     0.03800
C4135       C  0.47529341  0.05104119  0.55288825    -0.12200
C4136       C  0.47056975  0.04936891  0.56103757     0.18600
C4137       C  0.47312272  0.05409716  0.56899130    -0.09300
C4138       C  0.48026581  0.06047606  0.56864733    -0.02200
H4139       H  0.47334180  0.04740815  0.54674897     0.05200
C4140       C  0.46320058  0.04244296  0.56104874     0.20600
H4141       H  0.48217983  0.06396047  0.57487615     0.10300
C4142       C  0.46557166  0.03326405  0.55980761    -0.15600
C4143       C  0.45880940  0.02650834  0.55937084     0.03300
C4144       C  0.44945456  0.02890996  0.56026351    -0.10900
C4145       C  0.44710407  0.03812106  0.56149179    -0.00900
C4146       C  0.45387085  0.04488367  0.56174692    -0.06100
H4147       H  0.47274064  0.03135260  0.55917119     0.06300
H4148       H  0.43994990  0.04009975  0.56202173     0.09700
Br4149     Br  0.46732052  0.05179489  0.58053903    -0.05800
Br4150     Br  0.48785344  0.05920941  0.54066404    -0.02800
Br4151     Br  0.46284762  0.01412834  0.55798577     0.00100
Br4152     Br  0.45002934  0.05737666  0.56251327    -0.04300
C4153       C  0.32379515  0.07708992  0.69164687    -0.11700
C4154       C  0.33290921  0.07378969  0.69117985     0.03800
C4155       C  0.33582935  0.06895169  0.68350502    -0.12200
C4156       C  0.32978082  0.06708324  0.67631279     0.18600
C4157       C  0.32058719  0.07003179  0.67690965    -0.09300
C4158       C  0.31769461  0.07507798  0.68449275    -0.02200
H4159       H  0.34280403  0.06636054  0.68326773     0.05200
C4160       C  0.33295442  0.06102399  0.66891458     0.20600
H4161       H  0.31064598  0.07743914  0.68478677     0.10300
C4162       C  0.33516098  0.05201209  0.67118229    -0.15600
C4163       C  0.33810600  0.04590394  0.66452329     0.03300
C4164       C  0.33881697  0.04876643  0.65536511    -0.10900
C4165       C  0.33699113  0.05788168  0.65311097    -0.00900
C4166       C  0.33408785  0.06404121  0.65983498    -0.06100
H4167       H  0.33453574  0.04970471  0.67818764     0.06300
H4168       H  0.33761294  0.06014676  0.64609398     0.09700
Br4169     Br  0.31160772  0.06684490  0.66786755    -0.05800
Br4170     Br  0.34145567  0.07476222  0.70111928    -0.02800
Br4171     Br  0.34136808  0.03381622  0.66839727     0.00100
Br4172     Br  0.33191602  0.07646665  0.65635752    -0.04300
C4173       C  0.32912038  0.97971555  0.64555749    -0.11700
C4174       C  0.33347984  0.97274269  0.65059836     0.03800
C4175       C  0.32817174  0.96596636  0.65483529    -0.12200
C4176       C  0.31854763  0.96605419  0.65416715     0.18600
C4177       C  0.31421277  0.97303752  0.64917899    -0.09300
C4178       C  0.31949119  0.97974462  0.64491205    -0.02200
H4179       H  0.33154290  0.96071227  0.65881674     0.05200
C4180       C  0.31305312  0.95910400  0.65904143     0.20600
H4181       H  0.31602698  0.98512969  0.64119139     0.10300
C4182       C  0.31236560  0.95947635  0.66858928    -0.15600
C4183       C  0.30669871  0.95339479  0.67337714     0.03300
C4184       C  0.30147389  0.94687175  0.66855084    -0.10900
C4185       C  0.30243111  0.94637965  0.65899308    -0.00900
C4186       C  0.30820377  0.95234490  0.65425904    -0.06100
H4187       H  0.31623766  0.96455165  0.67232905     0.06300
H4188       H  0.29862387  0.94135189  0.65513315     0.09700
Br4189     Br  0.30107300  0.97402204  0.64845069    -0.05800
Br4190     Br  0.34649123  0.97263447  0.65269673    -0.02800
Br4191     Br  0.30699230  0.95394481  0.68645963     0.00100
Br4192     Br  0.30939081  0.95089670  0.64128011    -0.04300
C4193       C  0.38304239  0.01537607  0.60393097    -0.11700
C4194       C  0.38223027  0.01224447  0.59487662     0.03800
C4195       C  0.38979476  0.01272602  0.58899811    -0.12200
C4196       C  0.39825729  0.01616787  0.59202943     0.18600
C4197       C  0.39903805  0.01939148  0.60104896    -0.09300
C4198       C  0.39143519  0.01904439  0.60688600    -0.02200
H4199       H  0.38909225  0.01037427  0.58202137     0.05200
C4200       C  0.40615924  0.01624636  0.58566740     0.20600
H4201       H  0.39213344  0.02147690  0.61383490     0.10300
C4202       C  0.40972627  0.02458488  0.58260248    -0.15600
C4203       C  0.41689802  0.02485926  0.57621950     0.03300
C4204       C  0.42059666  0.01663359  0.57275737    -0.10900
C4205       C  0.41701262  0.00831137  0.57590309    -0.00900
C4206       C  0.40990620  0.00806605  0.58231320    -0.06100
H4207       H  0.40678774  0.03091228  0.58506194     0.06300
H4208       H  0.41980812  0.00192969  0.57342434     0.09700
Br4209     Br  0.41042179  0.02391465  0.60584277    -0.05800
Br4210     Br  0.37086723  0.00772742  0.59003338    -0.02800
Br4211     Br  0.42077856  0.03667329  0.57208344     0.00100
Br4212     Br  0.40570394  0.99637373  0.58645911    -0.04300
C4213       C  0.56105644  0.02649389  0.44851224    -0.11700
C4214       C  0.55946357  0.02449846  0.45781705     0.03800
C4215       C  0.55911666  0.03157161  0.46423228    -0.12200
C4216       C  0.56026328  0.04068580  0.46154697     0.18600
C4217       C  0.56195497  0.04266728  0.45228016    -0.09300
C4218       C  0.56241589  0.03559909  0.44587836    -0.02200
H4219       H  0.55799245  0.02995629  0.47136757     0.05200
C4220       C  0.55991020  0.04800799  0.46852493     0.20600
H4221       H  0.56360502  0.03725214  0.43876264     0.10300
C4222       C  0.56793888  0.05285262  0.47059821    -0.15600
C4223       C  0.56793066  0.05979320  0.47716167     0.03300
C4224       C  0.55969678  0.06204770  0.48182467    -0.10900
C4225       C  0.55168200  0.05708279  0.47976755    -0.00900
C4226       C  0.55173681  0.05013835  0.47320993    -0.06100
H4227       H  0.57429645  0.05114311  0.46713866     0.06300
H4228       H  0.54528496  0.05866008  0.48321083     0.09700
Br4229     Br  0.56323015  0.05495545  0.44797264    -0.05800
Br4230     Br  0.55825880  0.01223634  0.46224819    -0.02800
Br4231     Br  0.57958258  0.06538121  0.47973186     0.00100
Br4232     Br  0.54041081  0.04394051  0.47068825    -0.04300
C4233       C  0.68449503  0.08268524  0.31861246    -0.11700
C4234       C  0.67501818  0.08463880  0.31922385     0.03800
C4235       C  0.66902638  0.07825853  0.32314642    -0.12200
C4236       C  0.67237731  0.06994981  0.32651846     0.18600
C4237       C  0.68182013  0.06797771  0.32582551    -0.09300
C4238       C  0.68777971  0.07429718  0.32184297    -0.02200
H4239       H  0.66174457  0.07975496  0.32353622     0.05200
C4240       C  0.66600595  0.06323451  0.33055970     0.20600
H4241       H  0.69505033  0.07274220  0.32146164     0.10300
C4242       C  0.66323047  0.05578334  0.32527842    -0.15600
C4243       C  0.65836457  0.04856889  0.32921178     0.03300
C4244       C  0.65627775  0.04870809  0.33863456    -0.10900
C4245       C  0.65849745  0.05648396  0.34376565    -0.00900
C4246       C  0.66335842  0.06371803  0.33979274    -0.06100
H4247       H  0.66510460  0.05545899  0.31812370     0.06300
H4248       H  0.65689747  0.05672403  0.35098657     0.09700
Br4249     Br  0.68690541  0.05682562  0.33046387    -0.05800
Br4250     Br  0.66987864  0.09566379  0.31435952    -0.02800
Br4251     Br  0.65461324  0.03881660  0.32131636     0.00100
Br4252     Br  0.66680123  0.07383269  0.34733044    -0.04300
C4253       C  0.66293374  0.97567753  0.34708973    -0.11700
C4254       C  0.67250208  0.97423258  0.34688674     0.03800
C4255       C  0.67609937  0.96682061  0.34207663    -0.12200
C4256       C  0.67027449  0.96083023  0.33738514     0.18600
C4257       C  0.66068115  0.96195978  0.33804956    -0.09300
C4258       C  0.65708142  0.96933343  0.34292653    -0.02200
H4259       H  0.68347920  0.96587923  0.34175146     0.05200
C4260       C  0.67431703  0.95385264  0.33133559     0.20600
H4261       H  0.64971040  0.97038519  0.34305257     0.10300
C4262       C  0.67346531  0.94460708  0.33357223    -0.15600
C4263       C  0.67681780  0.93785163  0.32770580     0.03300
C4264       C  0.68108588  0.94034892  0.31938759    -0.10900
C4265       C  0.68219214  0.94964090  0.31734958    -0.00900
C4266       C  0.67884625  0.95636238  0.32321959    -0.06100
H4267       H  0.67014122  0.94264839  0.33989960     0.06300
H4268       H  0.68541051  0.95171493  0.31101038     0.09700
Br4269     Br  0.65226058  0.95406128  0.33181654    -0.05800
Br4270     Br  0.68090660  0.98211548  0.35315388    -0.02800
Br4271     Br  0.67577612  0.92544789  0.33176045     0.00100
Br4272     Br  0.68019802  0.96887201  0.31959785    -0.04300
C4273       C  0.61078103  0.01163298  0.38764717    -0.11700
C4274       C  0.61131717  0.00656876  0.39584094     0.03800
C4275       C  0.60384911  0.00645733  0.40186485    -0.12200
C4276       C  0.59578875  0.01129488  0.39987655     0.18600
C4277       C  0.59519324  0.01626616  0.39167835    -0.09300
C4278       C  0.60267257  0.01644006  0.38565943    -0.02200
H4279       H  0.60440976  0.00276495  0.40825266     0.05200
C4280       C  0.58847364  0.01177952  0.40686331     0.20600
H4281       H  0.60214605  0.02033344  0.37939185     0.10300
C4282       C  0.58959843  0.01776446  0.41419914    -0.15600
C4283       C  0.58302200  0.01838587  0.42114957     0.03300
C4284       C  0.57503217  0.01281525  0.42086912    -0.10900
C4285       C  0.57398297  0.00682772  0.41338977    -0.00900
C4286       C  0.58059276  0.00628745  0.40645549    -0.06100
H4287       H  0.59570012  0.02198679  0.41452630     0.06300
H4288       H  0.56798758  0.00249062  0.41288257     0.09700
Br4289     Br  0.58440537  0.02311851  0.38858748    -0.05800
Br4290     Br  0.62230143  0.00036369  0.39961879    -0.02800
Br4291     Br  0.58581958  0.02690836  0.43071475     0.00100
Br4292     Br  0.57866314  0.99786386  0.39662998    -0.04300
C4293       C  0.53714368  0.85603634  0.34015530    -0.11700
C4294       C  0.54316004  0.86124671  0.33468491     0.03800
C4295       C  0.55027338  0.85690863  0.32987519    -0.12200
C4296       C  0.55145962  0.84742952  0.33044823     0.18600
C4297       C  0.54563729  0.84229365  0.33611572    -0.09300
C4298       C  0.53854749  0.84659233  0.34087436    -0.02200
H4299       H  0.55471139  0.86088620  0.32546620     0.05200
C4300       C  0.55845766  0.84283049  0.32478412     0.20600
H4301       H  0.53396681  0.84249310  0.34502188     0.10300
C4302       C  0.56696240  0.84057888  0.32864564    -0.15600
C4303       C  0.57342491  0.83550743  0.32371694     0.03300
C4304       C  0.57136761  0.83254704  0.31476993    -0.10900
C4305       C  0.56282715  0.83480505  0.31093052    -0.00900
C4306       C  0.55641813  0.83996718  0.31584286    -0.06100
H4307       H  0.56849499  0.84262109  0.33558605     0.06300
H4308       H  0.56119539  0.83267917  0.30403981     0.09700
Br4309     Br  0.54686412  0.82931371  0.33721337    -0.05800
Br4310     Br  0.54144080  0.87407702  0.33284207    -0.02800
Br4311     Br  0.58466232  0.83232025  0.32980444     0.00100
Br4312     Br  0.54491025  0.84287980  0.31015911    -0.04300
C4313       C  0.51173402  0.96579827  0.43268856    -0.11700
C4314       C  0.51588973  0.96912188  0.42458994     0.03800
C4315       C  0.52293946  0.97560464  0.42511075    -0.12200
C4316       C  0.52597799  0.97890471  0.43355849     0.18600
C4317       C  0.52189359  0.97563159  0.44161708    -0.09300
C4318       C  0.51483648  0.96917128  0.44114200    -0.02200
H4319       H  0.52600465  0.97818191  0.41887477     0.05200
C4320       C  0.53327575  0.98591606  0.43381945     0.20600
H4321       H  0.51183111  0.96670326  0.44744723     0.10300
C4322       C  0.53085440  0.99506129  0.43521374    -0.15600
C4323       C  0.53757510  0.00188528  0.43542917     0.03300
C4324       C  0.54692397  0.99957715  0.43423661    -0.10900
C4325       C  0.54930772  0.99042170  0.43273127    -0.00900
C4326       C  0.54257849  0.98360890  0.43256940    -0.06100
H4327       H  0.52368937  0.99689875  0.43605696     0.06300
H4328       H  0.55645229  0.98853800  0.43182246     0.09700
Br4329     Br  0.52590038  0.97967179  0.45341646    -0.05800
Br4330     Br  0.51195944  0.96563394  0.41257243    -0.02800
Br4331     Br  0.53350919  0.01427056  0.43674019     0.00100
Br4332     Br  0.54639531  0.97121313  0.43087153    -0.04300
C4333       C  0.49668148  0.93892914  0.41894084    -0.11700
C4334       C  0.48838643  0.93598370  0.41489051     0.03800
C4335       C  0.48850400  0.92898719  0.40836087    -0.12200
C4336       C  0.49678303  0.92481419  0.40572490     0.18600
C4337       C  0.50508055  0.92794316  0.40957420    -0.09300
C4338       C  0.50497345  0.93493399  0.41607888    -0.02200
H4339       H  0.48210168  0.92681388  0.40528307     0.05200
C4340       C  0.49668381  0.91726503  0.39893675     0.20600
H4341       H  0.51141376  0.93712386  0.41906613     0.10300
C4342       C  0.50104977  0.91846064  0.39046584    -0.15600
C4343       C  0.50156217  0.91133317  0.38411596     0.03300
C4344       C  0.49755913  0.90279969  0.38613876    -0.10900
C4345       C  0.49287064  0.90172511  0.39446431    -0.00900
C4346       C  0.49246715  0.90882494  0.40086162    -0.06100
H4347       H  0.50414205  0.92497311  0.38881491     0.06300
H4348       H  0.48973097  0.89523758  0.39612129     0.09700
Br4349     Br  0.51673117  0.92263460  0.40647619    -0.05800
Br4350     Br  0.47678553  0.94165742  0.41751281    -0.02800
Br4351     Br  0.50737606  0.91385041  0.37262041     0.00100
Br4352     Br  0.48653029  0.90648031  0.41233305    -0.04300
C4353       C  0.33834552  0.86210033  0.53554484    -0.11700
C4354       C  0.32903104  0.85936921  0.53552383     0.03800
C4355       C  0.32552900  0.85427880  0.54279793    -0.12200
C4356       C  0.33108126  0.85199342  0.55025622     0.18600
C4357       C  0.34017809  0.85521413  0.55060678    -0.09300
C4358       C  0.34376345  0.86021233  0.54326082    -0.02200
H4359       H  0.31842461  0.85207113  0.54263949     0.05200
C4360       C  0.32715364  0.84627414  0.55757962     0.20600
H4361       H  0.35088079  0.86236189  0.54345604     0.10300
C4362       C  0.32906954  0.83689646  0.55777779    -0.15600
C4363       C  0.32487327  0.83119091  0.56424289     0.03300
C4364       C  0.31864004  0.83489942  0.57062742    -0.10900
C4365       C  0.31689156  0.84432932  0.57046110    -0.00900
C4366       C  0.32105665  0.84998587  0.56401254    -0.06100
H4367       H  0.33378344  0.83400473  0.55283297     0.06300
H4368       H  0.31210575  0.84732782  0.57526697     0.09700
Br4369     Br  0.34786104  0.85296879  0.56099962    -0.05800
Br4370     Br  0.32058175  0.86278121  0.52604169    -0.02800
Br4371     Br  0.32824128  0.81854810  0.56429867     0.00100
Br4372     Br  0.31820294  0.86275180  0.56422465    -0.04300
C4373       C  0.43649845  0.96868776  0.51050917    -0.11700
C4374       C  0.43945373  0.97777360  0.50910890     0.03800
C4375       C  0.43934977  0.98398370  0.51637370    -0.12200
C4376       C  0.43625092  0.98139835  0.52506787     0.18600
C4377       C  0.43315614  0.97242160  0.52645817    -0.09300
C4378       C  0.43331960  0.96617047  0.51924039    -0.02200
H4379       H  0.44154507  0.99094352  0.51519652     0.05200
C4380       C  0.43600357  0.98826429  0.53249026     0.20600
H4381       H  0.43101179  0.95926444  0.52050506     0.10300
C4382       C  0.42749808  0.99146962  0.53564607    -0.15600
C4383       C  0.42697566  0.99817264  0.54243446     0.03300
C4384       C  0.43513871  0.00188988  0.54616221    -0.10900
C4385       C  0.44364696  0.99861478  0.54297116    -0.00900
C4386       C  0.44412450  0.99184787  0.53625549    -0.06100
H4387       H  0.42121388  0.98880626  0.53271553     0.06300
H4388       H  0.44999036  0.00124954  0.54578411     0.09700
Br4389     Br  0.42884167  0.96833761  0.53815423    -0.05800
Br4390     Br  0.44298782  0.98243521  0.49736286    -0.02800
Br4391     Br  0.41487285  0.00221993  0.54579448     0.00100
Br4392     Br  0.45601989  0.98749004  0.53265090    -0.04300
C4393       C  0.45045620  0.95511611  0.48263448    -0.11700
C4394       C  0.45912729  0.95944656  0.48351785     0.03800
C4395       C  0.46553382  0.95897560  0.47637076    -0.12200
C4396       C  0.46359292  0.95421458  0.46830269     0.18600
C4397       C  0.45505978  0.94981066  0.46743015    -0.09300
C4398       C  0.44860622  0.95031560  0.47450293    -0.02200
H4399       H  0.47215450  0.96226207  0.47715333     0.05200
C4400       C  0.47060115  0.95383082  0.46093490     0.20600
H4401       H  0.44205638  0.94694253  0.47357047     0.10300
C4402       C  0.47490088  0.94550870  0.45888711    -0.15600
C4403       C  0.48156068  0.94492702  0.45198716     0.03300
C4404       C  0.48408326  0.95279821  0.44703604    -0.10900
C4405       C  0.47988109  0.96114362  0.44920117    -0.00900
C4406       C  0.47314919  0.96169385  0.45602107    -0.06100
H4407       H  0.47310230  0.93944649  0.46272416     0.06300
H4408       H  0.48171879  0.96724460  0.44544510     0.09700
Br4409     Br  0.45179462  0.94320753  0.45660157    -0.05800
Br4410     Br  0.46308728  0.96564838  0.49436922    -0.02800
Br4411     Br  0.48739052  0.93335159  0.45003717     0.00100
Br4412     Br  0.46734813  0.97325331  0.45812070    -0.04300
C4413       C  0.42296623  0.94114345  0.49668666    -0.11700
C4414       C  0.42422259  0.93251961  0.49247363     0.03800
C4415       C  0.41720018  0.92600616  0.49281709    -0.12200
C4416       C  0.40890199  0.92782788  0.49729329     0.18600
C4417       C  0.40758924  0.93633799  0.50147506    -0.09300
C4418       C  0.41456652  0.94289176  0.50115908    -0.02200
H4419       H  0.41825944  0.91940609  0.48966666     0.05200
C4420       C  0.40181150  0.92063897  0.49776348     0.20600
H4421       H  0.41336238  0.94941939  0.50439769     0.10300
C4422       C  0.40158525  0.91482932  0.50535476    -0.15600
C4423       C  0.39514384  0.90776645  0.50593501     0.03300
C4424       C  0.38866686  0.90651164  0.49884926    -0.10900
C4425       C  0.38899587  0.91232362  0.49120817    -0.00900
C4426       C  0.39550346  0.91932435  0.49062329    -0.06100
H4427       H  0.40656922  0.91569610  0.51077777     0.06300
H4428       H  0.38413495  0.91145787  0.48568035     0.09700
Br4429     Br  0.39633475  0.93928225  0.50763666    -0.05800
Br4430     Br  0.43541968  0.92878664  0.48658452    -0.02800
Br4431     Br  0.39618697  0.89963454  0.51615926     0.00100
Br4432     Br  0.39557480  0.92693810  0.47996766    -0.04300
C4433       C  0.46415062  0.84930755  0.34384002    -0.11700
C4434       C  0.45694164  0.84525185  0.34884820     0.03800
C4435       C  0.45022428  0.84013705  0.34428277    -0.12200
C4436       C  0.45056005  0.83904306  0.33476803     0.18600
C4437       C  0.45746891  0.84346917  0.32973891    -0.09300
C4438       C  0.46422485  0.84847439  0.33427956    -0.02200
H4439       H  0.44488949  0.83676410  0.34818782     0.05200
C4440       C  0.44392196  0.83295411  0.33019528     0.20600
H4441       H  0.46965779  0.85162724  0.33032228     0.10300
C4442       C  0.43514820  0.83622721  0.32802740    -0.15600
C4443       C  0.42877508  0.83064144  0.32358047     0.03300
C4444       C  0.43116532  0.82161932  0.32122644    -0.10900
C4445       C  0.44001517  0.81840841  0.32325180    -0.00900
C4446       C  0.44635881  0.82398060  0.32777005    -0.06100
H4447       H  0.43327794  0.84316265  0.32975658     0.06300
H4448       H  0.44189282  0.81146043  0.32158600     0.09700
Br4449     Br  0.45799810  0.84271246  0.31666794    -0.05800
Br4450     Br  0.45638713  0.84575711  0.36192616    -0.02800
Br4451     Br  0.41704744  0.83579329  0.32051334     0.00100
Br4452     Br  0.45817527  0.81899986  0.33076995    -0.04300
C4453       C  0.32500338  0.82625070  0.43034845    -0.11700
C4454       C  0.32037029  0.83189279  0.43665807     0.03800
C4455       C  0.32542675  0.83735525  0.44266925    -0.12200
C4456       C  0.33506172  0.83732903  0.44249144     0.18600
C4457       C  0.33969207  0.83184434  0.43612234    -0.09300
C4458       C  0.33466874  0.82641167  0.43008894    -0.02200
H4459       H  0.32183322  0.84159033  0.44756903     0.05200
C4460       C  0.34012264  0.84248977  0.44950926     0.20600
H4461       H  0.33835774  0.82214266  0.42529362     0.10300
C4462       C  0.34233213  0.83808377  0.45769179    -0.15600
C4463       C  0.34640628  0.84284894  0.46486998     0.03300
C4464       C  0.34825371  0.85226028  0.46394687    -0.10900
C4465       C  0.34650973  0.85654875  0.45554077    -0.00900
C4466       C  0.34243476  0.85172880  0.44834266    -0.06100
H4467       H  0.34074770  0.83091681  0.45853935     0.06300
H4468       H  0.34794215  0.86374534  0.45470067     0.09700
Br4469     Br  0.35285688  0.83145452  0.43556695    -0.05800
Br4470     Br  0.30722500  0.83283485  0.43708818    -0.02800
Br4471     Br  0.34954772  0.83600661  0.47561564     0.00100
Br4472     Br  0.33989124  0.85803042  0.43715120    -0.04300
C4473       C  0.33029036  0.79175434  0.36576146    -0.11700
C4474       C  0.33343235  0.78295759  0.36338891     0.03800
C4475       C  0.34003050  0.78195576  0.35649820    -0.12200
C4476       C  0.34359214  0.78959765  0.35198206     0.18600
C4477       C  0.34023641  0.79832204  0.35411486    -0.09300
C4478       C  0.33364074  0.79934038  0.36095482    -0.02200
H4479       H  0.34271619  0.77524145  0.35495482     0.05200
C4480       C  0.35149218  0.78850760  0.34580086     0.20600
H4481       H  0.33130151  0.80613096  0.36270757     0.10300
C4482       C  0.35003818  0.78696107  0.33647938    -0.15600
C4483       C  0.35745422  0.78668683  0.33037783     0.03300
C4484       C  0.36650779  0.78787991  0.33367062    -0.10900
C4485       C  0.36789135  0.78920307  0.34307088    -0.00900
C4486       C  0.36048743  0.78954849  0.34911011    -0.06100
H4487       H  0.34309204  0.78628812  0.33390883     0.06300
H4488       H  0.37477219  0.79012938  0.34573086     0.09700
Br4489     Br  0.34487157  0.80906785  0.34822403    -0.05800
Br4490     Br  0.32987377  0.77220442  0.36996581    -0.02800
Br4491     Br  0.35461156  0.78563829  0.31762969     0.00100
Br4492     Br  0.36293330  0.79182058  0.36178732    -0.04300
C4493       C  0.07116492  0.69969332  0.31987019    -0.11700
C4494       C  0.07320354  0.69078962  0.32293454     0.03800
C4495       C  0.06645342  0.68563045  0.32736241    -0.12200
C4496       C  0.05762588  0.68917207  0.32875893     0.18600
C4497       C  0.05549123  0.69795402  0.32547623    -0.09300
C4498       C  0.06222555  0.70311010  0.32100408    -0.02200
H4499       H  0.06810334  0.67883782  0.32976649     0.05200
C4500       C  0.05081487  0.68372834  0.33389228     0.20600
H4501       H  0.06058007  0.70995429  0.31875263     0.10300
C4502       C  0.05158451  0.68304284  0.34342448    -0.15600
C4503       C  0.04484894  0.67854099  0.34857980     0.03300
C4504       C  0.03722504  0.67460826  0.34415058    -0.10900
C4505       C  0.03667960  0.67502038  0.33457668    -0.00900
C4506       C  0.04341356  0.67947859  0.32944566    -0.06100
H4507       H  0.05727923  0.68630032  0.34688617     0.06300
H4508       H  0.03088118  0.67199237  0.33107435     0.09700
Br4509     Br  0.04363814  0.70336757  0.32741565    -0.05800
Br4510     Br  0.08495901  0.68518223  0.32094292    -0.02800
Br4511     Br  0.04594550  0.67877411  0.36162869     0.00100
Br4512     Br  0.04216520  0.67970499  0.31640304    -0.04300
C4513       C  0.15899984  0.66954447  0.46493809    -0.11700
C4514       C  0.16851647  0.67121008  0.46578357     0.03800
C4515       C  0.17315849  0.67596134  0.45892976    -0.12200
C4516       C  0.16843809  0.67917539  0.45125314     0.18600
C4517       C  0.15906654  0.67708730  0.45014279    -0.09300
C4518       C  0.15442503  0.67221369  0.45694434    -0.02200
H4519       H  0.18039597  0.67748416  0.45975847     0.05200
C4520       C  0.17316941  0.68542892  0.44495252     0.20600
H4521       H  0.14710861  0.67103438  0.45625706     0.10300
C4522       C  0.17626497  0.68224003  0.43648043    -0.15600
C4523       C  0.18039643  0.68819552  0.43025159     0.03300
C4524       C  0.18145305  0.69747743  0.43251112    -0.10900
C4525       C  0.17866302  0.70056879  0.44113226    -0.00900
C4526       C  0.17449251  0.69462774  0.44732811    -0.06100
H4527       H  0.17539841  0.67512831  0.43469699     0.06300
H4528       H  0.17942067  0.70769180  0.44292095     0.09700
Br4529     Br  0.15218953  0.68149034  0.43987231    -0.05800
Br4530     Br  0.17551051  0.66726019  0.47617839    -0.02800
Br4531     Br  0.18482154  0.68325119  0.41894102     0.00100
Br4532     Br  0.17028266  0.69944771  0.45877531    -0.04300
C4533       C  0.27149445  0.77538414  0.41029312    -0.11700
C4534       C  0.26451090  0.77821061  0.41643498     0.03800
C4535       C  0.25624541  0.77335941  0.41691782    -0.12200
C4536       C  0.25462608  0.76587100  0.41123754     0.18600
C4537       C  0.26140416  0.76317032  0.40496729    -0.09300
C4538       C  0.26979194  0.76777055  0.40468171    -0.02200
H4539       H  0.25091447  0.77560478  0.42157603     0.05200
C4540       C  0.24560454  0.76131611  0.41154114     0.20600
H4541       H  0.27492720  0.76545168  0.39986488     0.10300
C4542       C  0.23788972  0.76593027  0.40815670    -0.15600
C4543       C  0.22931786  0.76165565  0.40782640     0.03300
C4544       C  0.22840499  0.75258492  0.41091656    -0.10900
C4545       C  0.23605944  0.74814144  0.41470173    -0.00900
C4546       C  0.24462078  0.75243117  0.41502470    -0.06100
H4547       H  0.23857579  0.77284757  0.40565078     0.06300
H4548       H  0.23545801  0.74120290  0.41716288     0.09700
Br4549     Br  0.25925459  0.75368667  0.39619135    -0.05800
Br4550     Br  0.26512235  0.78907245  0.42369185    -0.02800
Br4551     Br  0.21908172  0.76870017  0.40348937     0.00100
Br4552     Br  0.25477297  0.74590250  0.42024523    -0.04300
C4553       C  0.13665723  0.73206101  0.33323847    -0.11700
C4554       C  0.14573937  0.73066349  0.33019099     0.03800
C4555       C  0.15297831  0.73080412  0.33646936    -0.12200
C4556       C  0.15127766  0.73233136  0.34576416     0.18600
C4557       C  0.14223136  0.73392106  0.34877559    -0.09300
C4558       C  0.13499757  0.73371466  0.34252377    -0.02200
H4559       H  0.15992275  0.72947115  0.33414723     0.05200
C4560       C  0.15887853  0.73166236  0.35236199     0.20600
H4561       H  0.12802956  0.73474754  0.34493240     0.10300
C4562       C  0.16231392  0.73960574  0.35640484    -0.15600
C4563       C  0.16871227  0.73911555  0.36351269     0.03300
C4564       C  0.17178283  0.73051532  0.36662373    -0.10900
C4565       C  0.16856467  0.72259943  0.36229990    -0.00900
C4566       C  0.16217680  0.72311591  0.35521455    -0.06100
H4567       H  0.15971156  0.74619164  0.35426968     0.06300
H4568       H  0.17085751  0.71595651  0.36460106     0.09700
Br4569     Br  0.13939773  0.73596136  0.36141698    -0.05800
Br4570     Br  0.14853324  0.72770430  0.31773603    -0.02800
Br4571     Br  0.17210179  0.75036971  0.36926370     0.00100
Br4572     Br  0.15769096  0.71195606  0.35005087    -0.04300
C4573       C  0.18087465  0.82716728  0.07054281    -0.11700
C4574       C  0.17148955  0.82548305  0.06880972     0.03800
C4575       C  0.16683793  0.83056427  0.06216723    -0.12200
C4576       C  0.17137394  0.83736822  0.05716473     0.18600
C4577       C  0.18072288  0.83913631  0.05897699    -0.09300
C4578       C  0.18541222  0.83398205  0.06555662    -0.02200
H4579       H  0.15967016  0.82911506  0.06079590     0.05200
C4580       C  0.16636653  0.84221912  0.04979728     0.20600
H4581       H  0.19259895  0.83538229  0.06687409     0.10300
C4582       C  0.16454765  0.85158696  0.05059833    -0.15600
C4583       C  0.16032861  0.85642547  0.04347050     0.03300
C4584       C  0.15772311  0.85182517  0.03541250    -0.10900
C4585       C  0.15932440  0.84240126  0.03476848    -0.00900
C4586       C  0.16360709  0.83760902  0.04183263    -0.06100
H4587       H  0.16667161  0.85519683  0.05669021     0.06300
H4588       H  0.15741383  0.83875737  0.02862635     0.09700
Br4589     Br  0.18743577  0.84835958  0.05250364    -0.05800
Br4590     Br  0.16482925  0.81595228  0.07488351    -0.02800
Br4591     Br  0.15922615  0.86938731  0.04479361     0.00100
Br4592     Br  0.16607937  0.82488592  0.03999336    -0.04300
C4593       C  0.03585657  0.85103388  0.15672592    -0.11700
C4594       C  0.04297071  0.85510700  0.16181698     0.03800
C4595       C  0.04979272  0.84964101  0.16578563    -0.12200
C4596       C  0.04961117  0.84013458  0.16478331     0.18600
C4597       C  0.04243117  0.83606022  0.15982758    -0.09300
C4598       C  0.03564609  0.84150487  0.15584844    -0.02200
H4599       H  0.05522264  0.85280234  0.16972410     0.05200
C4600       C  0.05695801  0.83454114  0.16891993     0.20600
H4601       H  0.03011994  0.83826935  0.15210462     0.10300
C4602       C  0.05692832  0.83293744  0.17835481    -0.15600
C4603       C  0.06371236  0.82750433  0.18243233     0.03300
C4604       C  0.07059177  0.82340270  0.17696630    -0.10900
C4605       C  0.07066025  0.82522223  0.16752690    -0.00900
C4606       C  0.06399051  0.83079298  0.16352264    -0.06100
H4607       H  0.05164576  0.83600346  0.18257319     0.06300
H4608       H  0.07591773  0.82228203  0.16319802     0.09700
Br4609     Br  0.04145340  0.82307442  0.15858690    -0.05800
Br4610     Br  0.04325789  0.86795070  0.16421687    -0.02800
Br4611     Br  0.06359566  0.82672537  0.19551660     0.00100
Br4612     Br  0.06488215  0.83334139  0.15069337    -0.04300
C4613       C  0.09894602  0.77522532  0.22862019    -0.11700
C4614       C  0.10367363  0.76690764  0.22996947     0.03800
C4615       C  0.10312243  0.76243607  0.23838634    -0.12200
C4616       C  0.09776065  0.76594442  0.24551945     0.18600
C4617       C  0.09286498  0.77412065  0.24413728    -0.09300
C4618       C  0.09347792  0.77867228  0.23574339    -0.02200
H4619       H  0.10686678  0.75612243  0.23936297     0.05200
C4620       C  0.09757887  0.76104237  0.25437623     0.20600
H4621       H  0.08975155  0.78500282  0.23482846     0.10300
C4622       C  0.10127676  0.76524872  0.26213817    -0.15600
C4623       C  0.10162504  0.76069018  0.27053112     0.03300
C4624       C  0.09842240  0.75161355  0.27121760    -0.10900
C4625       C  0.09457076  0.74748303  0.26345920    -0.00900
C4626       C  0.09411691  0.75210658  0.25510772    -0.06100
H4627       H  0.10389739  0.77214430  0.26166207     0.06300
H4628       H  0.09200104  0.74056598  0.26384565     0.09700
Br4629     Br  0.08506767  0.77920249  0.25340470    -0.05800
Br4630     Br  0.11042463  0.76084979  0.22047177    -0.02800
Br4631     Br  0.10590615  0.76755241  0.28084097     0.00100
Br4632     Br  0.08848942  0.74600942  0.24496142    -0.04300
C4633       C  0.14030524  0.79690098  0.16958723    -0.11700
C4634       C  0.14928553  0.79722093  0.17323258     0.03800
C4635       C  0.15688195  0.79706320  0.16735076    -0.12200
C4636       C  0.15567449  0.79664831  0.15786515     0.18600
C4637       C  0.14674218  0.79615770  0.15424129    -0.09300
C4638       C  0.13916267  0.79628668  0.16008780    -0.02200
H4639       H  0.16374797  0.79759312  0.17015695     0.05200
C4640       C  0.16369263  0.79752868  0.15175699     0.20600
H4641       H  0.13232467  0.79603240  0.15717724     0.10300
C4642       C  0.16709746  0.78982154  0.14723029    -0.15600
C4643       C  0.17391374  0.79065852  0.14052144     0.03300
C4644       C  0.17740509  0.79935928  0.13826705    -0.10900
C4645       C  0.17416162  0.80701510  0.14303980    -0.00900
C4646       C  0.16740460  0.80614980  0.14977194    -0.06100
H4647       H  0.16417582  0.78318384  0.14866950     0.06300
H4648       H  0.17674251  0.81373713  0.14136586     0.09700
Br4649     Br  0.14455429  0.79582756  0.14132200    -0.05800
Br4650     Br  0.15163517  0.79884501  0.18602113    -0.02800
Br4651     Br  0.17736644  0.77982085  0.13404541     0.00100
Br4652     Br  0.16302496  0.81697925  0.15570201    -0.04300
C4653       C  0.34572796  0.66917191  0.03305327    -0.11700
C4654       C  0.34272839  0.66516510  0.04129255     0.03800
C4655       C  0.33884190  0.67063728  0.04814303    -0.12200
C4656       C  0.33794561  0.68008712  0.04691726     0.18600
C4657       C  0.34117801  0.68410564  0.03881189    -0.09300
C4658       C  0.34495169  0.67865395  0.03194680    -0.02200
H4659       H  0.33635286  0.66750033  0.05437029     0.05200
C4660       C  0.33346197  0.68569630  0.05402985     0.20600
H4661       H  0.34723168  0.68183824  0.02566313     0.10300
C4662       C  0.33892252  0.69047125  0.06026381    -0.15600
C4663       C  0.33494172  0.69624162  0.06676642     0.03300
C4664       C  0.32527699  0.69729250  0.06712061    -0.10900
C4665       C  0.31983333  0.69256563  0.06078407    -0.00900
C4666       C  0.32385016  0.68676421  0.05430712    -0.06100
H4667       H  0.34633551  0.68982556  0.05995470     0.06300
H4668       H  0.31242510  0.69328128  0.06095745     0.09700
Br4669     Br  0.34034469  0.69699614  0.03674517    -0.05800
Br4670     Br  0.34308028  0.65224068  0.04323188    -0.02800
Br4671     Br  0.34316727  0.70300170  0.07444933     0.00100
Br4672     Br  0.31600238  0.68050127  0.04587819    -0.04300
C4673       C  0.27617725  0.75136755  0.09197442    -0.11700
C4674       C  0.27586094  0.75996763  0.09635191     0.03800
C4675       C  0.26778021  0.76516680  0.09615314    -0.12200
C4676       C  0.25991308  0.76203518  0.09162639     0.18600
C4677       C  0.26033305  0.75369308  0.08688418    -0.09300
C4678       C  0.26840557  0.74845226  0.08707922    -0.02200
H4679       H  0.26759750  0.77167237  0.09964582     0.05200
C4680       C  0.25134532  0.76754392  0.09211115     0.20600
H4681       H  0.26850555  0.74194464  0.08359498     0.10300
C4682       C  0.25086817  0.77591289  0.08750123    -0.15600
C4683       C  0.24316182  0.78161934  0.08835670     0.03300
C4684       C  0.23562775  0.77892765  0.09387616    -0.10900
C4685       C  0.23617340  0.77050284  0.09846802    -0.00900
C4686       C  0.24393522  0.76489345  0.09769438    -0.06100
H4687       H  0.25664559  0.77812587  0.08338736     0.06300
H4688       H  0.23056943  0.76828287  0.10279834     0.09700
Br4689     Br  0.25005381  0.74920791  0.08004915    -0.05800
Br4690     Br  0.28630285  0.76531214  0.10230788    -0.02800
Br4691     Br  0.24393116  0.79331560  0.08253209     0.00100
Br4692     Br  0.24435748  0.75393846  0.10485843    -0.04300
C4693       C  0.43535235  0.70092202  0.17484173    -0.11700
C4694       C  0.44493906  0.70134319  0.17632134     0.03800
C4695       C  0.45075390  0.69521330  0.17182027    -0.12200
C4696       C  0.44724255  0.68874163  0.16570051     0.18600
C4697       C  0.43769559  0.68810615  0.16444227    -0.09300
C4698       C  0.43185497  0.69413187  0.16901823    -0.02200
H4699       H  0.45811726  0.69574714  0.17279024     0.05200
C4700       C  0.45372098  0.68321530  0.16023741     0.20600
H4701       H  0.42452618  0.69362995  0.16783152     0.10300
C4702       C  0.45437702  0.67377929  0.16169366    -0.15600
C4703       C  0.46094068  0.66855271  0.15702259     0.03300
C4704       C  0.46705613  0.67284063  0.15088753    -0.10900
C4705       C  0.46615565  0.68222775  0.14925384    -0.00900
C4706       C  0.45951939  0.68738842  0.15378075    -0.06100
H4707       H  0.44991933  0.67051888  0.16664185     0.06300
H4708       H  0.47070564  0.68559710  0.14446248     0.09700
Br4709     Br  0.43235642  0.67958738  0.15605148    -0.05800
Br4710     Br  0.45070928  0.71064732  0.18351155    -0.02800
Br4711     Br  0.46167881  0.65581114  0.15986938     0.00100
Br4712     Br  0.45856393  0.70010631  0.15081425    -0.04300
C4713       C  0.40669921  0.74606075  0.22919709    -0.11700
C4714       C  0.39852977  0.74696587  0.23436152     0.03800
C4715       C  0.39870925  0.75144602  0.24277118    -0.12200
C4716       C  0.40693308  0.75489224  0.24629774     0.18600
C4717       C  0.41519627  0.75341810  0.24151484    -0.09300
C4718       C  0.41502678  0.74908820  0.23299386    -0.02200
H4719       H  0.39237935  0.75227051  0.24658873     0.05200
C4720       C  0.40666626  0.76004637  0.25495320     0.20600
H4721       H  0.42139995  0.74823941  0.22925813     0.10300
C4722       C  0.40495690  0.75539725  0.26313748    -0.15600
C4723       C  0.40430188  0.76011364  0.27141318     0.03300
C4724       C  0.40542377  0.76968060  0.27157723    -0.10900
C4725       C  0.40713655  0.77431192  0.26335310    -0.00900
C4726       C  0.40761937  0.76959125  0.25506540    -0.06100
H4727       H  0.40413750  0.74805812  0.26307757     0.06300
H4728       H  0.40785192  0.78166074  0.26334148     0.09700
Br4729     Br  0.42683037  0.75706185  0.24646708    -0.05800
Br4730     Br  0.38702830  0.74165380  0.23076477    -0.02800
Br4731     Br  0.40234494  0.75301538  0.28226004     0.00100
Br4732     Br  0.40905725  0.77647454  0.24400330    -0.04300
C4733       C  0.36929249  0.73261789  0.16510180    -0.11700
C4734       C  0.36995676  0.73448846  0.15567069     0.03800
C4735       C  0.36223181  0.73358345  0.15009343    -0.12200
C4736       C  0.35373726  0.73097805  0.15376596     0.18600
C4737       C  0.35291955  0.72961915  0.16325134    -0.09300
C4738       C  0.36067665  0.73046374  0.16885945    -0.02200
H4739       H  0.36287473  0.73480692  0.14282282     0.05200
C4740       C  0.34597727  0.72931993  0.14747771     0.20600
H4741       H  0.36004083  0.72912371  0.17610728     0.10300
C4742       C  0.34311470  0.72033737  0.14588127    -0.15600
C4743       C  0.33634089  0.71842020  0.13938111     0.03300
C4744       C  0.33238243  0.72558292  0.13427103    -0.10900
C4745       C  0.33505401  0.73459745  0.13612000    -0.00900
C4746       C  0.34180511  0.73649380  0.14263522    -0.06100
H4747       H  0.34624856  0.71478355  0.14964269     0.06300
H4748       H  0.33207020  0.74019172  0.13230549     0.09700
Br4749     Br  0.34134799  0.72662266  0.16876874    -0.05800
Br4750     Br  0.38112223  0.73869602  0.15008099    -0.02800
Br4751     Br  0.33248477  0.70597255  0.13815062     0.00100
Br4752     Br  0.34510243  0.74897428  0.14472504    -0.04300
loop_ 
_geom_bond_atom_site_label_1 
_geom_bond_atom_site_label_2 
_geom_bond_distance 
_geom_bond_site_symmetry_2 
_ccdc_geom_bond_type 
N1            N2   1.320       .  A
N1            C5   1.349       .  A
N1           Cu9   2.074       .  S
N2            C3   1.340       .  A
N2           Cu8   2.059       .  S
C3            C4   1.382       .  A
C3            H6   1.081       .  S
C4            C5   1.387       .  A
C4         C4733   1.477       .  S
C5            H7   1.082       .  S
Cu8          N11   2.059       .  S
Cu9          N19   2.075       .  S
Cu10         N12   2.080       .  S
Cu10         N18   2.082       .  S
N11          N12   1.321       .  A
N11          C15   1.340       .  A
N12          C13   1.348       .  A
C13          C14   1.390       .  A
C13          H16   1.081       .  S
C14          C15   1.383       .  A
C14        C4693   1.483       .  S
C15          H17   1.081       .  S
N18          N19   1.324       .  A
N18          C22   1.348       .  A
N19          C20   1.341       .  A
C20          C21   1.383       .  A
C20          H23   1.081       .  S
C21          C22   1.386       .  A
C21        C4713   1.482       .  S
C22          H24   1.081       .  S
N25          N26   1.319       .  A
N25          C29   1.345       .  A
N25         Cu33   2.070       .  S
N26          C27   1.344       .  A
N26         Cu32   2.063       .  S
C27          C28   1.386       .  A
C27          H30   1.082       .  S
C28          C29   1.387       .  A
C28        C4744   1.480       .  S
C29          H31   1.081       .  S
Cu32         N35   2.063       .  S
Cu33         N43   2.071       .  S
Cu34         N36   2.106       .  S
Cu34         N42   2.106       .  S
N35          N36   1.324       .  A
N35          C39   1.341       .  A
N36          C37   1.351       .  A
C37          C38   1.391       .  A
C37          H40   1.082       .  S
C38          C39   1.379       .  A
C38        C4664   1.483       .  S
C39          H41   1.081       .  S
N42          N43   1.323       .  A
N42          C46   1.352       .  A
N43          C44   1.343       .  A
C44          C45   1.383       .  A
C44          H47   1.081       .  S
C45          C46   1.393       .  A
C45        C4673   1.490       .  S
C46          H48   1.081       .  S
N49          N50   1.320       .  A
N49          C53   1.346       .  A
N49         Cu57   2.067       .  S
N50          C51   1.342       .  A
N50         Cu56   2.065       .  S
C51          C52   1.384       .  A
C51          H54   1.082       .  S
C52          C53   1.385       .  A
C52        C4633   1.478       .  S
C53          H55   1.081       .  S
Cu56         N59   2.065       .  S
Cu57         N67   2.068       .  S
Cu58         N60   2.087       .  S
Cu58         N66   2.087       .  S
N59          N60   1.321       .  A
N59          C63   1.342       .  A
N60          C61   1.347       .  A
C61          C62   1.390       .  A
C61          H64   1.081       .  S
C62          C63   1.384       .  A
C62        C4604   1.486       .  S
C63          H65   1.081       .  S
N66          N67   1.323       .  A
N66          C70   1.348       .  A
N67          C68   1.342       .  A
C68          C69   1.383       .  A
C68          H71   1.082       .  S
C69          C70   1.388       .  A
C69        C4613   1.483       .  S
C70          H72   1.081       .  S
N73          N74   1.321       .  A
N73          C77   1.348       .  A
N73         Cu81   2.084       .  S
N74          C75   1.342       .  A
N74         Cu80   2.062       .  S
C75          C76   1.381       .  A
C75          H78   1.082       .  S
C76          C77   1.388       .  A
C76        C4644   1.479       .  S
C77          H79   1.081       .  S
Cu80         N83   2.062       .  S
Cu81         N91   2.085       .  S
Cu82         N84   2.097       .  S
Cu82         N90   2.098       .  S
N83          N84   1.322       .  A
N83          C87   1.343       .  A
N84          C85   1.350       .  A
C85          C86   1.388       .  A
C85          H88   1.082       .  S
C86          C87   1.380       .  A
C86        C4573   1.478       .  S
C87          H89   1.082       .  S
N90          N91   1.323       .  A
N90          C94   1.349       .  A
N91          C92   1.346       .  A
C92          C93   1.388       .  A
C92          H95   1.082       .  S
C93          C94   1.391       .  A
C93        C4684   1.496       .  S
C94          H96   1.079       .  S
N97          N98   1.320       .  A
N97         C101   1.345       .  A
N97        Cu105   2.064       .  S
N98          C99   1.342       .  A
N98        Cu104   2.061       .  S
C99         C100   1.383       .  A
C99         H102   1.082       .  S
C100        C101   1.385       .  A
C100       C4564   1.476       .  S
C101        H103   1.081       .  S
Cu104       N107   2.061       .  S
Cu105       N115   2.065       .  S
Cu106       N108   2.073       .  S
Cu106       N114   2.073       .  S
N107        N108   1.322       .  A
N107        C111   1.341       .  A
N108        C109   1.346       .  A
C109        C110   1.383       .  A
C109        H112   1.082       .  S
C110        C111   1.380       .  A
C110       C4524   1.470       .  S
C111        H113   1.082       .  S
N114        N115   1.322       .  A
N114        C118   1.345       .  A
N115        C116   1.342       .  A
C116        C117   1.382       .  A
C116        H119   1.081       .  S
C117        C118   1.385       .  A
C117       C4544   1.475       .  S
C118        H120   1.081       .  S
N121        N122   1.321       .  A
N121        C125   1.346       .  A
N121       Cu129   2.070       .  S
N122        C123   1.342       .  A
N122       Cu128   2.059       .  S
C123        C124   1.380       .  A
C123        H126   1.082       .  S
C124        C125   1.384       .  A
C124       C4553   1.470       .  S
C125        H127   1.081       .  S
Cu128       N131   2.059       .  S
Cu129       N139   2.071       .  S
Cu130       N132   2.089       .  S
Cu130       N138   2.089       .  S
N131        N132   1.322       .  A
N131        C135   1.341       .  A
N132        C133   1.349       .  A
C133        C134   1.388       .  A
C133        H136   1.081       .  S
C134        C135   1.380       .  A
C134       C4493   1.478       .  S
C135        H137   1.081       .  S
N138        N139   1.323       .  A
N138        C142   1.347       .  A
N139        C140   1.344       .  A
C140        C141   1.384       .  A
C140        H143   1.081       .  S
C141        C142   1.388       .  A
C141       C4624   1.484       .  S
C142        H144   1.081       .  S
N145        N146   1.319       .  A
N145        C149   1.346       .  A
N145       Cu153   2.065       .  S
N146        C147   1.340       .  A
N146       Cu152   2.059       .  S
C147        C148   1.382       .  A
C147        H150   1.082       .  S
C148        C149   1.386       .  A
C148       C4473   1.475       .  S
C149        H151   1.081       .  S
Cu152       N155   2.059       .  S
Cu153       N163   2.066       .  S
Cu154       N156   2.088       .  S
Cu154       N162   2.088       .  S
N155        N156   1.321       .  A
N155        C159   1.341       .  A
N156        C157   1.349       .  A
C157        C158   1.390       .  A
C157        H160   1.082       .  S
C158        C159   1.381       .  A
C158       C4453   1.481       .  S
C159        H161   1.082       .  S
N162        N163   1.322       .  A
N162        C166   1.346       .  A
N163        C164   1.340       .  A
C164        C165   1.385       .  A
C164        H167   1.082       .  S
C165        C166   1.391       .  A
C165       C4533   1.490       .  S
C166        H168   1.079       .  S
N169        N170   1.319       .  A
N169        C173   1.347       .  A
N169       Cu177   2.071       .  S
N170        C171   1.340       .  A
N170       Cu176   2.055       .  S
C171        C172   1.383       .  A
C171        H174   1.082       .  S
C172        C173   1.388       .  A
C172       C4484   1.479       .  S
C173        H175   1.081       .  S
Cu176       N179   2.056       .  S
Cu177       N187   2.072       .  S
Cu178       N180   2.094       .  S
Cu178       N186   2.095       .  S
N179        N180   1.322       .  A
N179        C183   1.341       .  A
N180        C181   1.350       .  A
C181        C182   1.389       .  A
C181        H184   1.082       .  S
C182        C183   1.378       .  A
C182       C4444   1.476       .  S
C183        H185   1.081       .  S
N186        N187   1.325       .  A
N186        C190   1.348       .  A
N187        C188   1.344       .  A
C188        C189   1.381       .  A
C188        H191   1.082       .  S
C189        C190   1.386       .  A
C189       C4724   1.480       .  S
C190        H192   1.082       .  S
C193        N194   1.360       .  A
C193        N198   1.357       .  A
C193       C4413   1.491       .  S
N194        C195   1.360       .  A
C195        N196   1.361       .  A
C195       C4373   1.489       .  S
N196        C197   1.360       .  A
C197        N198   1.359       .  A
C197       C4393   1.495       .  S
N199        N200   1.320       .  A
N199        C203   1.338       .  A
N199       Cu207   2.049       .  S
N200        C201   1.350       .  A
N200       Cu206   2.085       .  S
C201        C202   1.390       .  A
C201        H204   1.081       .  S
C202        C203   1.380       .  A
C202       C4464   1.479       .  S
C203        H205   1.082       .  S
Cu206       N209   2.087       .  S
Cu207       N217   2.049       .  S
Cu208       N210   2.090       .  S
Cu208       N216   2.087       .  S
N209        N210   1.326       .  A
N209        C213   1.346       .  A
N210        C211   1.346       .  A
C211        C212   1.386       .  A
C211        H214   1.081       .  S
C212        C213   1.385       .  A
C212       C4424   1.485       .  S
C213        H215   1.081       .  S
N216        N217   1.319       .  A
N216        C220   1.350       .  A
N217        C218   1.339       .  A
C218        C219   1.380       .  A
C218        H221   1.081       .  S
C219        C220   1.391       .  A
C219       C4353   1.480       .  S
C220        H222   1.081       .  S
C223        N224   1.360       .  A
C223        N228   1.360       .  A
C223       C4333   1.485       .  S
N224        C225   1.360       .  A
C225        N226   1.360       .  A
C225       C4313   1.489       .  S
N226        C227   1.359       .  A
C227        N228   1.360       .  A
C227       C4404   1.481       .  S
N229        N230   1.320       .  A
N229        C233   1.340       .  A
N229       Cu237   2.051       .  S
N230        C231   1.350       .  A
N230       Cu236   2.090       .  S
C231        C232   1.390       .  A
C231        H234   1.082       .  S
C232        C233   1.380       .  A
C232       C4433   1.480       .  S
C233        H235   1.082       .  S
Cu236       N239   2.092       .  S
Cu237       N247   2.051       .  S
Cu238       N240   2.098       .  S
Cu238       N246   2.095       .  S
N239        N240   1.326       .  A
N239        C243   1.348       .  A
N240        C241   1.348       .  A
C241        C242   1.387       .  A
C241        H244   1.081       .  S
C242        C243   1.385       .  A
C242       C4344   1.486       .  S
C243        H245   1.082       .  S
N246        N247   1.321       .  A
N246        C250   1.352       .  A
N247        C248   1.339       .  A
C248        C249   1.378       .  A
C248        H251   1.082       .  S
C249        C250   1.391       .  A
C249       C4293   1.478       .  S
C250        H252   1.082       .  S
N253        N254   1.322       .  A
N253        C257   1.340       .  A
N253       Cu261   2.062       .  S
N254        C255   1.350       .  A
N254       Cu260   2.089       .  S
C255        C256   1.389       .  A
C255        H258   1.081       .  S
C256        C257   1.381       .  A
C256       C4244   1.479       .  S
C257        H259   1.082       .  S
Cu260       N263   2.090       .  S
Cu261       N271   2.062   1_545  S
Cu262       N264   2.068       .  S
Cu262       N270   2.067   1_545  S
N263        N264   1.324       .  A
N263        C267   1.347       .  A
N264        C265   1.343       .  A
C265        C266   1.381       .  A
C265        H268   1.082   1_545  S
C266        C267   1.386       .  A
C266       C4273   1.479       .  S
C267        H269   1.082       .  S
N270        N271   1.320       .  A
N270        C274   1.346       .  A
N271        C272   1.342       .  A
C272        C273   1.382       .  A
C272        H275   1.082       .  S
C273        C274   1.384       .  A
C273       C4253   1.471       .  S
C274        H276   1.081       .  S
C277        N278   1.361       .  A
C277        N282   1.360       .  A
C277       C4284   1.498       .  S
N278        C279   1.359       .  A
C279        N280   1.358       .  A
C279       C4324   1.479   1_545  S
N280        C281   1.357       .  A
C281        N282   1.359       .  A
C281       C4213   1.481       .  S
N283        N284   1.320       .  A
N283        C287   1.338       .  A
N283       Cu291   2.049       .  S
N284        C285   1.348       .  A
N284       Cu290   2.071       .  S
C285        C286   1.385       .  A
C285        H288   1.081       .  S
C286        C287   1.378       .  A
C286       C4164   1.469       .  S
C287        H289   1.082       .  S
Cu290       N293   2.072       .  S
Cu291       N301   2.050       .  S
Cu292       N294   2.092       .  S
Cu292       N300   2.090   1_545  S
N293        N294   1.326       .  A
N293        C297   1.343       .  A
N294        C295   1.348       .  A
C295        C296   1.385       .  A
C295        H298   1.082       .  S
C296        C297   1.379       .  A
C296       C4193   1.474       .  S
C297        H299   1.082       .  S
N300        N301   1.320   1_565  A
N300        C304   1.351       .  A
N301        C302   1.339   1_545  A
C302        C303   1.379       .  A
C302        H305   1.082       .  S
C303        C304   1.391       .  A
C303       C4173   1.479       .  S
C304        H306   1.082       .  S
C307        N308   1.357       .  A
C307        N312   1.359       .  A
C307       C4204   1.482       .  S
N308        C309   1.358       .  A
C309        N310   1.360       .  A
C309       C4144   1.478       .  S
N310        C311   1.360       .  A
C311        N312   1.358       .  A
C311       C4384   1.488       .  S
N313        N314   1.319       .  A
N313        C317   1.337       .  A
N313       Cu321   2.041       .  S
N314        C315   1.350       .  A
N314       Cu320   2.087       .  S
C315        C316   1.391       .  A
C315        H318   1.082       .  S
C316        C317   1.378       .  A
C316       C4073   1.478       .  S
C317        H319   1.082       .  S
Cu320       N323   2.090       .  S
Cu321       N331   2.041       .  S
Cu322       N324   2.093       .  S
Cu322       N330   2.090       .  S
N323        N324   1.327       .  A
N323        C327   1.346       .  A
N324        C325   1.347       .  A
C325        C326   1.385       .  A
C325        H328   1.082       .  S
C326        C327   1.384       .  A
C326       C4113   1.482       .  S
C327        H329   1.082       .  S
N330        N331   1.319       .  A
N330        C334   1.351       .  A
N331        C332   1.338       .  A
C332        C333   1.378       .  A
C332        H335   1.082       .  S
C333        C334   1.391       .  A
C333       C4093   1.478       .  S
C334        H336   1.081       .  S
C337        N338   1.360       .  A
C337        N342   1.363       .  A
C337       C4124   1.499       .  S
N338        C339   1.360       .  A
C339        N340   1.355       .  A
C339       C4133   1.489       .  S
N340        C341   1.356       .  A
C341        N342   1.360       .  A
C341       C4053   1.479       .  S
C343        N344   1.358       .  A
C343        N348   1.358       .  A
C343       C4044   1.480       .  S
N344        C345   1.360       .  A
C345        N346   1.361       .  A
C345       C4224   1.490       .  S
N346        C347   1.359       .  A
C347        N348   1.361       .  A
C347       C4064   1.496       .  S
N349        N350   1.320       .  A
N349        C353   1.340       .  A
N349       Cu357   2.056       .  S
N350        C351   1.350       .  A
N350       Cu356   2.082       .  S
C351        C352   1.387       .  A
C351        H354   1.081       .  S
C352        C353   1.379       .  A
C352       C4013   1.474       .  S
C353        H355   1.082       .  S
Cu356       N359   2.084       .  S
Cu357       N367   2.055       .  S
Cu358       N360   2.103       .  S
Cu358       N366   2.102       .  S
N359        N360   1.325       .  A
N359        C363   1.345       .  A
N360        C361   1.349       .  A
C361        C362   1.389       .  A
C361        H364   1.081       .  S
C362        C363   1.384       .  A
C362       C4033   1.489       .  S
C363        H365   1.082       .  S
N366        N367   1.321       .  A
N366        C370   1.352       .  A
N367        C368   1.341       .  A
C368        C369   1.379       .  A
C368        H371   1.082       .  S
C369        C370   1.392       .  A
C369       C3993   1.482       .  S
C370        H372   1.081       .  S
N373        N374   1.319       .  A
N373        C377   1.345       .  A
N373       Cu381   2.062       .  S
N374        C375   1.340       .  A
N374       Cu380   2.058       .  S
C375        C376   1.382       .  A
C375        H378   1.082       .  S
C376        C377   1.385       .  A
C376       C3973   1.473       .  S
C377        H379   1.081       .  S
Cu380       N383   2.058       .  S
Cu381       N391   2.063       .  S
Cu382       N384   2.090       .  S
Cu382       N390   2.090       .  S
N383        N384   1.322       .  A
N383        C387   1.342       .  A
N384        C385   1.347       .  A
C385        C386   1.389       .  A
C385        H388   1.082       .  S
C386        C387   1.382       .  A
C386       C3944   1.481       .  S
C387        H389   1.081       .  S
N390        N391   1.323       .  A
N390        C394   1.349       .  A
N391        C392   1.341       .  A
C392        C393   1.380       .  A
C392        H395   1.082       .  S
C393        C394   1.388       .  A
C393       C3964   1.478       .  S
C394        H396   1.081       .  S
N397        N398   1.320       .  A
N397        C401   1.346       .  A
N397       Cu405   2.075       .  S
N398        C399   1.341       .  A
N398       Cu404   2.061       .  S
C399        C400   1.383       .  A
C399        H402   1.082       .  S
C400        C401   1.387       .  A
C400       C3984   1.480       .  S
C401        H403   1.081       .  S
Cu404       N407   2.061       .  S
Cu405       N415   2.077       .  S
Cu406       N408   2.100       .  S
Cu406       N414   2.101       .  S
N407        N408   1.322       .  A
N407        C411   1.343       .  A
N408        C409   1.350       .  A
C409        C410   1.389       .  A
C409        H412   1.082       .  S
C410        C411   1.380       .  A
C410       C3893   1.479       .  S
C411        H413   1.082       .  S
N414        N415   1.323       .  A
N414        C418   1.349       .  A
N415        C416   1.345       .  A
C416        C417   1.386       .  A
C416        H419   1.081       .  S
C417        C418   1.391       .  A
C417       C3913   1.492       .  S
C418        H420   1.081       .  S
N421        N422   1.320       .  A
N421        C425   1.346       .  A
N421       Cu429   2.072       .  S
N422        C423   1.342       .  A
N422       Cu428   2.066       .  S
C423        C424   1.385       .  A
C423        H426   1.081       .  S
C424        C425   1.387       .  A
C424       C3873   1.480       .  S
C425        H427   1.082       .  S
Cu428       N431   2.066       .  S
Cu429       N439   2.073       .  S
Cu430       N432   2.094       .  S
Cu430       N438   2.094       .  S
N431        N432   1.322       .  A
N431        C435   1.343       .  A
N432        C433   1.349       .  A
C433        C434   1.390       .  A
C433        H436   1.082       .  S
C434        C435   1.383       .  A
C434       C3833   1.485       .  S
C435        H437   1.081       .  S
N438        N439   1.324       .  A
N438        C442   1.350       .  A
N439        C440   1.343       .  A
C440        C441   1.382       .  A
C440        H443   1.082       .  S
C441        C442   1.388       .  A
C441       C3864   1.482       .  S
C442        H444   1.081       .  S
N445        N446   1.320       .  A
N445        C449   1.347       .  A
N445       Cu453   2.076       .  S
N446        C447   1.341       .  A
N446       Cu452   2.061       .  S
C447        C448   1.383       .  A
C447        H450   1.081       .  S
C448        C449   1.389       .  A
C448       C3884   1.480       .  S
C449        H451   1.082       .  S
Cu452       N455   2.061       .  S
Cu453       N463   2.077       .  S
Cu454       N456   2.088       .  S
Cu454       N462   2.088       .  S
N455        N456   1.321       .  A
N455        C459   1.343       .  A
N456        C457   1.347       .  A
C457        C458   1.391       .  A
C457        H460   1.081       .  S
C458        C459   1.384       .  A
C458       C3813   1.486       .  S
C459        H461   1.082       .  S
N462        N463   1.324       .  A
N462        C466   1.348       .  A
N463        C464   1.344       .  A
C464        C465   1.381       .  A
C464        H467   1.082       .  S
C465        C466   1.385       .  A
C465       C3953   1.476       .  S
C466        H468   1.081       .  S
N469        N470   1.319       .  A
N469        C473   1.349       .  A
N469       Cu477   2.080       .  S
N470        C471   1.339       .  A
N470       Cu476   2.049       .  S
C471        C472   1.380       .  A
C471        H474   1.081       .  S
C472        C473   1.388       .  A
C472       C3804   1.477       .  S
C473        H475   1.082       .  S
Cu476       N479   2.049       .  S
Cu477       N487   2.082       .  S
Cu478       N480   2.093       .  S
Cu478       N486   2.095       .  S
N479        N480   1.321       .  A
N479        C483   1.341       .  A
N480        C481   1.348       .  A
C481        C482   1.391       .  A
C481        H484   1.082       .  S
C482        C483   1.381       .  A
C482       C4084   1.482       .  S
C483        H485   1.081       .  S
N486        N487   1.324       .  A
N486        C490   1.350       .  A
N487        C488   1.343       .  A
C488        C489   1.386       .  A
C488        H491   1.082       .  S
C489        C490   1.390       .  A
C489       C3773   1.491       .  S
C490        H492   1.080       .  S
N493        N494   1.320       .  A
N493        C497   1.347       .  A
N493       Cu501   2.085       .  S
N494        C495   1.342       .  A
N494       Cu500   2.056       .  S
C495        C496   1.383       .  A
C495        H498   1.081       .  S
C496        C497   1.389       .  A
C496       C3793   1.481       .  S
C497        H499   1.082       .  S
Cu500       N503   2.055       .  S
Cu501       N511   2.087       .  S
Cu502       N504   2.085       .  S
Cu502       N510   2.086       .  S
N503        N504   1.321       .  A
N503        C507   1.341       .  A
N504        C505   1.348       .  A
C505        C506   1.389       .  A
C505        H508   1.082       .  S
C506        C507   1.381       .  A
C506       C4153   1.479       .  S
C507        H509   1.081       .  S
N510        N511   1.324       .  A
N510        C514   1.348       .  A
N511        C512   1.346       .  A
C512        C513   1.385       .  A
C512        H515   1.082       .  S
C513        C514   1.385       .  A
C513       C3924   1.484       .  S
C514        H516   1.081       .  S
N517        N518   1.321       .  A
N517        C521   1.349       .  A
N517       Cu525   2.083       .  S
N518        C519   1.341       .  A
N518       Cu524   2.066       .  S
C519        C520   1.383       .  A
C519        H522   1.082       .  S
C520        C521   1.389       .  A
C520       C3764   1.484       .  S
C521        H523   1.081       .  S
Cu524       N527   2.066       .  S
Cu525       N535   2.085       .  S
Cu526       N528   2.090       .  S
Cu526       N534   2.091       .  S
N527        N528   1.322       .  A
N527        C531   1.344       .  A
N528        C529   1.348       .  A
C529        C530   1.387       .  A
C529        H532   1.082       .  S
C530        C531   1.383       .  A
C530       C3733   1.482       .  S
C531        H533   1.082       .  S
N534        N535   1.324       .  A
N534        C538   1.349       .  A
N535        C536   1.345       .  A
C536        C537   1.386       .  A
C536        H539   1.082       .  S
C537        C538   1.387       .  A
C537       C3784   1.486       .  S
C538        H540   1.082       .  S
N541        N542   1.320       .  A
N541        C545   1.346       .  A
N541       Cu549   2.067       .  S
N542        C543   1.343       .  A
N542       Cu548   2.071       .  S
C543        C544   1.385       .  A
C543        H546   1.082       .  S
C544        C545   1.385       .  A
C544       C3753   1.480       .  S
C545        H547   1.081       .  S
Cu548       N551   2.071       .  S
Cu549       N559   2.068       .  S
Cu550       N552   2.104       .  S
Cu550       N558   2.104       .  S
N551        N552   1.322       .  A
N551        C555   1.344       .  A
N552        C553   1.351       .  A
C553        C554   1.393       .  A
C553        H556   1.082       .  S
C554        C555   1.384       .  A
C554       C3713   1.491       .  S
C555        H557   1.081       .  S
N558        N559   1.324       .  A
N558        C562   1.351       .  A
N559        C560   1.343       .  A
C560        C561   1.379       .  A
C560        H563   1.082       .  S
C561        C562   1.389       .  A
C561       C3853   1.480       .  S
C562        H564   1.081       .  S
N565        N566   1.320       .  A
N565        C569   1.340       .  A
N565       Cu573   2.053       .  S
N566        C567   1.352       .  A
N566       Cu572   2.099       .  S
C567        C568   1.392       .  A
C567        H570   1.081       .  S
C568        C569   1.380       .  A
C568       C3673   1.483       .  S
C569        H571   1.082       .  S
Cu572       N575   2.101       .  S
Cu573       N583   2.053   1_556  S
Cu574       N576   2.095       .  S
Cu574       N582   2.093       .  S
N575        N576   1.326   1_556  A
N575        C579   1.348       .  A
N576        C577   1.348       .  A
C577        C578   1.386   1_554  A
C577        H580   1.081       .  S
C578        C579   1.387       .  A
C578       C3704   1.489       .  S
C579        H581   1.081       .  S
N582        N583   1.320       .  A
N582        C586   1.351       .  A
N583        C584   1.340       .  A
C584        C585   1.379       .  A
C584        H587   1.083       .  S
C585        C586   1.391       .  A
C585       C4653   1.480       .  S
C586        H588   1.082       .  S
C589        N590   1.356   1_556  A
C589        N594   1.364       .  A
C589       C3693   1.497       .  S
N590        C591   1.357       .  A
C591        N592   1.362   1_554  A
C591       C3653   1.486       .  S
N592        C593   1.365       .  A
C593        N594   1.364       .  A
C593       C3633   1.496       .  S
C595        N596   1.362       .  A
C595        N600   1.362       .  A
C595       C3624   1.490       .  S
N596        C597   1.360       .  A
C597        N598   1.358       .  A
C597       C3593   1.476       .  S
N598        C599   1.360       .  A
C599        N600   1.362       .  A
C599       C3644   1.491       .  S
N601        N602   1.321       .  A
N601        C605   1.341       .  A
N601       Cu609   2.064       .  S
N602        C603   1.351       .  A
N602       Cu608   2.094       .  S
C603        C604   1.392       .  A
C603        H606   1.082       .  S
C604        C605   1.382       .  A
C604       C3573   1.487       .  S
C605        H607   1.082       .  S
Cu608       N611   2.096       .  S
Cu609       N619   2.065       .  S
Cu610       N612   2.101       .  S
Cu610       N618   2.099       .  S
N611        N612   1.326       .  A
N611        C615   1.348       .  A
N612        C613   1.349       .  A
C613        C614   1.386       .  A
C613        H616   1.082       .  S
C614        C615   1.385       .  A
C614       C3613   1.486       .  S
C615        H617   1.081       .  S
N618        N619   1.321       .  A
N618        C622   1.352       .  A
N619        C620   1.343       .  A
C620        C621   1.383       .  A
C620        H623   1.082       .  S
C621        C622   1.393       .  A
C621       C3724   1.489       .  S
C622        H624   1.082       .  S
C625        N626   1.359       .  A
C625        N630   1.361       .  A
C625       C3564   1.486       .  S
N626        C627   1.362       .  A
C627        N628   1.360       .  A
C627       C3604   1.502       .  S
N628        C629   1.362       .  A
C629        N630   1.362       .  A
C629       C3533   1.491       .  S
N631        N632   1.321       .  A
N631        C635   1.341       .  A
N631       Cu639   2.058       .  S
N632        C633   1.351       .  A
N632       Cu638   2.100       .  S
C633        C634   1.393       .  A
C633        H636   1.081       .  S
C634        C635   1.382       .  A
C634       C3744   1.488       .  S
C635        H637   1.082       .  S
Cu638       N641   2.102       .  S
Cu639       N649   2.057       .  S
Cu640       N642   2.094       .  S
Cu640       N648   2.092       .  S
N641        N642   1.325       .  A
N641        C645   1.349       .  A
N642        C643   1.347       .  A
C643        C644   1.388       .  A
C643        H646   1.080       .  S
C644        C645   1.390       .  A
C644       C3553   1.496       .  S
C645        H647   1.082       .  S
N648        N649   1.321       .  A
N648        C652   1.351       .  A
N649        C650   1.341       .  A
C650        C651   1.380       .  A
C650        H653   1.082       .  S
C651        C652   1.390       .  A
C651       C3513   1.480       .  S
C652        H654   1.082       .  S
N655        N656   1.321       .  A
N655        C659   1.339       .  A
N655       Cu663   2.047   1_554  S
N656        C657   1.352       .  A
N656       Cu662   2.098       .  S
C657        C658   1.391       .  A
C657        H660   1.082       .  S
C658        C659   1.377       .  A
C658       C3453   1.477       .  S
C659        H661   1.082       .  S
Cu662       N665   2.100       .  S
Cu663       N673   2.047       .  S
Cu664       N666   2.080       .  S
Cu664       N672   2.078       .  S
N665        N666   1.326   1_554  A
N665        C669   1.349       .  A
N666        C667   1.345       .  A
C667        C668   1.382       .  A
C667        H670   1.081       .  S
C668        C669   1.386   1_556  A
C668       C3493   1.481       .  S
C669        H671   1.081       .  S
N672        N673   1.319       .  A
N672        C676   1.349       .  A
N673        C674   1.339       .  A
C674        C675   1.377       .  A
C674        H677   1.083       .  S
C675        C676   1.388       .  A
C675       C3473   1.472       .  S
C676        H678   1.082       .  S
C679        N680   1.362       .  A
C679        N684   1.359   1_556  A
C679       C3504   1.488       .  S
N680        C681   1.363       .  A
C681        N682   1.361       .  A
C681       C3544   1.496       .  S
N682        C683   1.360   1_556  A
C683        N684   1.358       .  A
C683       C3444   1.487       .  S
C685        N686   1.363       .  A
C685        N690   1.356       .  A
C685       C3413   1.487       .  S
N686        C687   1.363       .  A
C687        N688   1.361       .  A
C687       C3433   1.495       .  S
N688        C689   1.358       .  A
C689        N690   1.356       .  A
C689       C3393   1.482       .  S
N691        N692   1.320       .  A
N691        C695   1.341       .  A
N691       Cu699   2.052       .  S
N692        C693   1.347       .  A
N692       Cu698   2.077       .  S
C693        C694   1.386       .  A
C693        H696   1.081       .  S
C694        C695   1.380       .  A
C694       C3373   1.474       .  S
C695        H697   1.082       .  S
Cu698       N701   2.079       .  S
Cu699       N709   2.052       .  S
Cu700       N702   2.088       .  S
Cu700       N708   2.086       .  S
N701        N702   1.324       .  A
N701        C705   1.344       .  A
N702        C703   1.347       .  A
C703        C704   1.387       .  A
C703        H706   1.082       .  S
C704        C705   1.385       .  A
C704       C3424   1.485       .  S
C705        H707   1.081       .  S
N708        N709   1.321       .  A
N708        C712   1.349       .  A
N709        C710   1.339       .  A
C710        C711   1.379       .  A
C710        H713   1.082       .  S
C711        C712   1.388       .  A
C711       C3364   1.476       .  S
C712        H714   1.082       .  S
C715        N716   1.362       .  A
C715        N720   1.358       .  A
C715       C3333   1.482       .  S
N716        C717   1.363       .  A
C717        N718   1.359       .  A
C717       C3664   1.486       .  S
N718        C719   1.357       .  A
C719        N720   1.358       .  A
C719       C3404   1.478       .  S
N721        N722   1.320       .  A
N721        C725   1.339       .  A
N721       Cu729   2.052       .  S
N722        C723   1.351       .  A
N722       Cu728   2.090       .  S
C723        C724   1.391       .  A
C723        H726   1.082       .  S
C724        C725   1.380       .  A
C724       C3313   1.480       .  S
C725        H727   1.082       .  S
Cu728       N731   2.092       .  S
Cu729       N739   2.053       .  S
Cu730       N732   2.084       .  S
Cu730       N738   2.081       .  S
N731        N732   1.326       .  A
N731        C735   1.347       .  A
N732        C733   1.346       .  A
C733        C734   1.384       .  A
C733        H736   1.081       .  S
C734        C735   1.385       .  A
C734       C3344   1.482       .  S
C735        H737   1.082       .  S
N738        N739   1.320       .  A
N738        C742   1.349       .  A
N739        C740   1.339       .  A
C740        C741   1.380       .  A
C740        H743   1.082       .  S
C741        C742   1.389       .  A
C741       C4704   1.478       .  S
C742        H744   1.081       .  S
N745        N746   1.320       .  A
N745        C749   1.345       .  A
N745       Cu753   2.072       .  S
N746        C747   1.344       .  A
N746       Cu752   2.067       .  S
C747        C748   1.386       .  A
C747        H750   1.081       .  S
C748        C749   1.386       .  A
C748       C3293   1.482       .  S
C749        H751   1.081       .  S
Cu752       N755   2.067       .  S
Cu753       N763   2.073       .  S
Cu754       N756   2.081       .  S
Cu754       N762   2.081       .  S
N755        N756   1.322       .  A
N755        C759   1.341       .  A
N756        C757   1.348       .  A
C757        C758   1.388       .  A
C757        H760   1.081       .  S
C758        C759   1.383       .  A
C758       C4104   1.482       .  S
C759        H761   1.082       .  S
N762        N763   1.323       .  A
N762        C766   1.347       .  A
N763        C764   1.343       .  A
C764        C765   1.383       .  A
C764        H767   1.082       .  S
C765        C766   1.385       .  A
C765       C3273   1.479       .  S
C766        H768   1.081       .  S
N769        N770   1.319       .  A
N769        C773   1.348       .  A
N769       Cu777   2.073       .  S
N770        C771   1.341       .  A
N770       Cu776   2.060       .  S
C771        C772   1.383       .  A
C771        H774   1.082       .  S
C772        C773   1.387       .  A
C772       C3304   1.478       .  S
C773        H775   1.081       .  S
Cu776       N779   2.060       .  S
Cu777       N787   2.074       .  S
Cu778       N780   2.102       .  S
Cu778       N786   2.103       .  S
N779        N780   1.321       .  A
N779        C783   1.340       .  A
N780        C781   1.352       .  A
C781        C782   1.396       .  A
C781        H784   1.080       .  S
C782        C783   1.384       .  A
C782       C4004   1.494       .  S
C783        H785   1.082       .  S
N786        N787   1.326       .  A
N786        C790   1.350       .  A
N787        C788   1.344       .  A
C788        C789   1.379       .  A
C788        H791   1.082       .  S
C789        C790   1.388       .  A
C789       C3253   1.480       .  S
C790        H792   1.081       .  S
N793        N794   1.321       .  A
N793        C797   1.347       .  A
N793       Cu801   2.069       .  S
N794        C795   1.342       .  A
N794       Cu800   2.068       .  S
C795        C796   1.383       .  A
C795        H798   1.082       .  S
C796        C797   1.385       .  A
C796       C3233   1.477       .  S
C797        H799   1.082       .  S
Cu800       N803   2.068       .  S
Cu801       N811   2.070       .  S
Cu802       N804   2.088       .  S
Cu802       N810   2.088       .  S
N803        N804   1.321       .  A
N803        C807   1.343       .  A
N804        C805   1.347       .  A
C805        C806   1.390       .  A
C805        H808   1.082       .  S
C806        C807   1.385       .  A
C806       C3524   1.488       .  S
C807        H809   1.081       .  S
N810        N811   1.324       .  A
N810        C814   1.348       .  A
N811        C812   1.343       .  A
C812        C813   1.380       .  A
C812        H815   1.082       .  S
C813        C814   1.387       .  A
C813       C3284   1.478       .  S
C814        H816   1.081       .  S
N817        N818   1.319       .  A
N817        C821   1.346       .  A
N817       Cu825   2.070       .  S
N818        C819   1.342       .  A
N818       Cu824   2.060       .  S
C819        C820   1.383       .  A
C819        H822   1.082       .  S
C820        C821   1.387       .  A
C820       C3244   1.478       .  S
C821        H823   1.081       .  S
Cu824       N827   2.060       .  S
Cu825       N835   2.072       .  S
Cu826       N828   2.084       .  S
Cu826       N834   2.085       .  S
N827        N828   1.321       .  A
N827        C831   1.340       .  A
N828        C829   1.348       .  A
C829        C830   1.391       .  A
C829        H832   1.081       .  S
C830        C831   1.383       .  A
C830       C3484   1.485       .  S
C831        H833   1.081       .  S
N834        N835   1.324       .  A
N834        C838   1.347       .  A
N835        C836   1.343       .  A
C836        C837   1.380       .  A
C836        H839   1.082       .  S
C837        C838   1.385       .  A
C837       C3213   1.476       .  S
C838        H840   1.081       .  S
N841        N842   1.321       .  A
N841        C845   1.346       .  A
N841       Cu849   2.074       .  S
N842        C843   1.343       .  A
N842       Cu848   2.063       .  S
C843        C844   1.383       .  A
C843        H846   1.082       .  S
C844        C845   1.385       .  A
C844       C3193   1.476       .  S
C845        H847   1.082       .  S
Cu848       N851   2.063       .  S
Cu849       N859   2.075       .  S
Cu850       N852   2.085       .  S
Cu850       N858   2.085       .  S
N851        N852   1.322       .  A
N851        C855   1.342       .  A
N852        C853   1.347       .  A
C853        C854   1.388       .  A
C853        H856   1.081       .  S
C854        C855   1.382       .  A
C854       C3173   1.482       .  S
C855        H857   1.082       .  S
N858        N859   1.323       .  A
N858        C862   1.348       .  A
N859        C860   1.344       .  A
C860        C861   1.383       .  A
C860        H863   1.081       .  S
C861        C862   1.386       .  A
C861       C3264   1.481       .  S
C862        H864   1.081       .  S
N865        N866   1.319       .  A
N865        C869   1.344       .  A
N865       Cu873   2.065       .  S
N866        C867   1.344       .  A
N866       Cu872   2.070       .  S
C867        C868   1.386       .  A
C867        H870   1.081       .  S
C868        C869   1.385       .  A
C868       C3204   1.479       .  S
C869        H871   1.082       .  S
Cu872       N875   2.071       .  S
Cu873       N883   2.065       .  S
Cu874       N876   2.095       .  S
Cu874       N882   2.095       .  S
N875        N876   1.324       .  A
N875        C879   1.343       .  A
N876        C877   1.350       .  A
C877        C878   1.388       .  A
C877        H880   1.082       .  S
C878        C879   1.381       .  A
C878       C3133   1.482       .  S
C879        H881   1.081       .  S
N882        N883   1.323       .  A
N882        C886   1.350       .  A
N883        C884   1.342       .  A
C884        C885   1.382       .  A
C884        H887   1.082       .  S
C885        C886   1.390       .  A
C885       C3164   1.483       .  S
C886        H888   1.081       .  S
N889        N890   1.321       .  A
N889        C893   1.344       .  A
N889       Cu897   2.062       .  S
N890        C891   1.347       .  A
N890       Cu896   2.081       .  S
C891        C892   1.387       .  A
C891        H894   1.082       .  S
C892        C893   1.382       .  A
C892       C3113   1.478       .  S
C893        H895   1.082       .  S
Cu896       N899   2.081       .  S
Cu897       N907   2.063       .  S
Cu898       N900   2.081       .  S
Cu898       N906   2.081       .  S
N899        N900   1.323       .  A
N899        C903   1.343       .  A
N900        C901   1.347       .  A
C901        C902   1.387       .  A
C901        H904   1.081       .  S
C902        C903   1.385       .  A
C902       C3093   1.485       .  S
C903        H905   1.082       .  S
N906        N907   1.322       .  A
N906        C910   1.347       .  A
N907        C908   1.342       .  A
C908        C909   1.380       .  A
C908        H911   1.081       .  S
C909        C910   1.385       .  A
C909       C3224   1.474       .  S
C910        H912   1.081       .  S
N913        N914   1.320       .  A
N913        C917   1.349       .  A
N913       Cu921   2.075       .  S
N914        C915   1.341       .  A
N914       Cu920   2.068       .  S
C915        C916   1.383       .  A
C915        H918   1.082       .  S
C916        C917   1.388       .  A
C916       C3124   1.481       .  S
C917        H919   1.082       .  S
Cu920       N923   2.068       .  S
Cu921       N931   2.076       .  S
Cu922       N924   2.092       .  S
Cu922       N930   2.093       .  S
N923        N924   1.321       .  A
N923        C927   1.343       .  A
N924        C925   1.349       .  A
C925        C926   1.391       .  A
C925        H928   1.081       .  S
C926        C927   1.385       .  A
C926       C3073   1.490       .  S
C927        H929   1.081       .  S
N930        N931   1.323       .  A
N930        C934   1.349       .  A
N931        C932   1.343       .  A
C932        C933   1.385       .  A
C932        H935   1.082       .  S
C933        C934   1.390       .  A
C933       C3153   1.489       .  S
C934        H936   1.080       .  S
N937        N938   1.320       .  A
N937        C941   1.347       .  A
N937       Cu945   2.073       .  S
N938        C939   1.340       .  A
N938       Cu944   2.058       .  S
C939        C940   1.382       .  A
C939        H942   1.081       .  S
C940        C941   1.386       .  A
C940       C3053   1.476       .  S
C941        H943   1.082       .  S
Cu944       N947   2.058       .  S
Cu945       N955   2.074       .  S
Cu946       N948   2.085       .  S
Cu946       N954   2.086       .  S
N947        N948   1.321       .  A
N947        C951   1.343       .  A
N948        C949   1.347       .  A
C949        C950   1.387       .  A
C949        H952   1.082       .  S
C950        C951   1.381       .  A
C950       C3353   1.476       .  S
C951        H953   1.082       .  S
N954        N955   1.323       .  A
N954        C958   1.347       .  A
N955        C956   1.343       .  A
C956        C957   1.383       .  A
C956        H959   1.082       .  S
C957        C958   1.388       .  A
C957       C3033   1.484       .  S
C958        H960   1.080       .  S
N961        N962   1.320       .  A
N961        C965   1.346       .  A
N961       Cu969   2.071       .  S
N962        C963   1.342       .  A
N962       Cu968   2.061       .  S
C963        C964   1.382       .  A
C963        H966   1.081       .  S
C964        C965   1.385       .  A
C964       C3064   1.474       .  S
C965        H967   1.081       .  S
Cu968       N971   2.061       .  S
Cu969       N979   2.071       .  S
Cu970       N972   2.094       .  S
Cu970       N978   2.094       .  S
N971        N972   1.322       .  A
N971        C975   1.342       .  A
N972        C973   1.348       .  A
C973        C974   1.390       .  A
C973        H976   1.082       .  S
C974        C975   1.381       .  A
C974       C3324   1.482       .  S
C975        H977   1.081       .  S
N978        N979   1.322       .  A
N978        C982   1.350       .  A
N979        C980   1.342       .  A
C980        C981   1.386       .  A
C980        H983   1.082       .  S
C981        C982   1.393       .  A
C981       C3024   1.493       .  S
C982        H984   1.080       .  S
N985        N986   1.320       .  A
N985        C989   1.347       .  A
N985       Cu993   2.072       .  S
N986        C987   1.342       .  A
N986       Cu992   2.062       .  S
C987        C988   1.382       .  A
C987        H990   1.082       .  S
C988        C989   1.385       .  A
C988       C2993   1.476       .  S
C989        H991   1.082       .  S
Cu992       N995   2.062       .  S
Cu993      N1003   2.073       .  S
Cu994       N996   2.092       .  S
Cu994      N1002   2.092       .  S
N995        N996   1.321       .  A
N995        C999   1.341       .  A
N996        C997   1.349       .  A
C997        C998   1.391       .  A
C997       H1000   1.081       .  S
C998        C999   1.383       .  A
C998       C2973   1.486       .  S
C999       H1001   1.082       .  S
N1002      N1003   1.323       .  A
N1002      C1006   1.348       .  A
N1003      C1004   1.343       .  A
C1004      C1005   1.385       .  A
C1004      H1007   1.081       .  S
C1005      C1006   1.389       .  A
C1005      C3044   1.487       .  S
C1006      H1008   1.081       .  S
N1009      N1010   1.318       .  A
N1009      C1013   1.348       .  A
N1009     Cu1017   2.076       .  S
N1010      C1011   1.341       .  A
N1010     Cu1016   2.053       .  S
C1011      C1012   1.382       .  A
C1011      H1014   1.082       .  S
C1012      C1013   1.389       .  A
C1012      C3004   1.480       .  S
C1013      H1015   1.081       .  S
Cu1016     N1019   2.053       .  S
Cu1017     N1027   2.077       .  S
Cu1018     N1020   2.099       .  S
Cu1018     N1026   2.100       .  S
N1019      N1020   1.322       .  A
N1019      C1023   1.339       .  A
N1020      C1021   1.351       .  A
C1021      C1022   1.391       .  A
C1021      H1024   1.081       .  S
C1022      C1023   1.377       .  A
C1022      C2933   1.478       .  S
C1023      H1025   1.081       .  S
N1026      N1027   1.324       .  A
N1026      C1030   1.351       .  A
N1027      C1028   1.342       .  A
C1028      C1029   1.384       .  A
C1028      H1031   1.080       .  S
C1029      C1030   1.392       .  A
C1029      C2953   1.492       .  S
C1030      H1032   1.081       .  S
N1033      N1034   1.320       .  A
N1033      C1037   1.348       .  A
N1033     Cu1041   2.079       .  S
N1034      C1035   1.341       .  A
N1034     Cu1040   2.051       .  S
C1035      C1036   1.379       .  A
C1035      H1038   1.082       .  S
C1036      C1037   1.387       .  A
C1036      C2913   1.474       .  S
C1037      H1039   1.082       .  S
Cu1040     N1043   2.050       .  S
Cu1041     N1051   2.081       .  S
Cu1042     N1044   2.095       .  S
Cu1042     N1050   2.096       .  S
N1043      N1044   1.322       .  A
N1043      C1047   1.340       .  A
N1044      C1045   1.350       .  A
C1045      C1046   1.390       .  A
C1045      H1048   1.082       .  S
C1046      C1047   1.378       .  A
C1046      C4304   1.478       .  S
C1047      H1049   1.081       .  S
N1050      N1051   1.325       .  A
N1050      C1054   1.350       .  A
N1051      C1052   1.344       .  A
C1052      C1053   1.383       .  A
C1052      H1055   1.082       .  S
C1053      C1054   1.389       .  A
C1053      C3013   1.485       .  S
C1054      H1056   1.081       .  S
N1057      N1058   1.320       .  A
N1057      C1061   1.345       .  A
N1057     Cu1065   2.063       .  S
N1058      C1059   1.342       .  A
N1058     Cu1064   2.065       .  S
C1059      C1060   1.383       .  A
C1059      H1062   1.082       .  S
C1060      C1061   1.384       .  A
C1060      C2924   1.474       .  S
C1061      H1063   1.082       .  S
Cu1064     N1067   2.066       .  S
Cu1065     N1075   2.063       .  S
Cu1066     N1068   2.075       .  S
Cu1066     N1074   2.075       .  S
N1067      N1068   1.321       .  A
N1067      C1071   1.343       .  A
N1068      C1069   1.345       .  A
C1069      C1070   1.387       .  A
C1069      H1072   1.082       .  S
C1070      C1071   1.384       .  A
C1070      C4264   1.481       .  S
C1071      H1073   1.081       .  S
N1074      N1075   1.321       .  A
N1074      C1078   1.346       .  A
N1075      C1076   1.340       .  A
C1076      C1077   1.385       .  A
C1076      H1079   1.082       .  S
C1077      C1078   1.389       .  A
C1077      C2893   1.485       .  S
C1078      H1080   1.079       .  S
N1081      N1082   1.319       .  A
N1081      C1085   1.345       .  A
N1081     Cu1089   2.064       .  S
N1082      C1083   1.340       .  A
N1082     Cu1088   2.058       .  S
C1083      C1084   1.384       .  A
C1083      H1086   1.082       .  S
C1084      C1085   1.386       .  A
C1084      C2873   1.479       .  S
C1085      H1087   1.080       .  S
Cu1088     N1091   2.059       .  S
Cu1089     N1099   2.066       .  S
Cu1090     N1092   2.098       .  S
Cu1090     N1098   2.099       .  S
N1091      N1092   1.321       .  A
N1091      C1095   1.341       .  A
N1092      C1093   1.349       .  A
C1093      C1094   1.394       .  A
C1093      H1096   1.080       .  S
C1094      C1095   1.384       .  A
C1094      C2853   1.491       .  S
C1095      H1097   1.081       .  S
N1098      N1099   1.323       .  A
N1098      C1102   1.349       .  A
N1099      C1100   1.343       .  A
C1100      C1101   1.382       .  A
C1100      H1103   1.082       .  S
C1101      C1102   1.390       .  A
C1101      C2964   1.485       .  S
C1102      H1104   1.081       .  S
N1105      N1106   1.319       .  A
N1105      C1109   1.343       .  A
N1105     Cu1113   2.047       .  S
N1106      C1107   1.341       .  A
N1106     Cu1112   2.067       .  S
C1107      C1108   1.384       .  A
C1107      H1110   1.082       .  S
C1108      C1109   1.381       .  A
C1108      C2884   1.472       .  S
C1109      H1111   1.081       .  S
Cu1112     N1115   2.068       .  S
Cu1113     N1123   2.048       .  S
Cu1114     N1116   2.088       .  S
Cu1114     N1122   2.088       .  S
N1115      N1116   1.323       .  A
N1115      C1119   1.342       .  A
N1116      C1117   1.349       .  A
C1117      C1118   1.388       .  A
C1117      H1120   1.082       .  S
C1118      C1119   1.381       .  A
C1118      C2833   1.479       .  S
C1119      H1121   1.082       .  S
N1122      N1123   1.322       .  A
N1122      C1126   1.347       .  A
N1123      C1124   1.339       .  A
C1124      C1125   1.379       .  A
C1124      H1127   1.081       .  S
C1125      C1126   1.388       .  A
C1125      C2904   1.476       .  S
C1126      H1128   1.081       .  S
N1129      N1130   1.322       .  A
N1129      C1133   1.348       .  A
N1129     Cu1137   2.079       .  S
N1130      C1131   1.342       .  A
N1130     Cu1136   2.069       .  S
C1131      C1132   1.382       .  A
C1131      H1134   1.082       .  S
C1132      C1133   1.387       .  A
C1132      C2813   1.479       .  S
C1133      H1135   1.082       .  S
Cu1136     N1139   2.069       .  S
Cu1137     N1147   2.080       .  S
Cu1138     N1140   2.082       .  S
Cu1138     N1146   2.082       .  S
N1139      N1140   1.321       .  A
N1139      C1143   1.345       .  A
N1140      C1141   1.347       .  A
C1141      C1142   1.387       .  A
C1141      H1144   1.081       .  S
C1142      C1143   1.383       .  A
C1142      C3584   1.479       .  S
C1143      H1145   1.081       .  S
N1146      N1147   1.324       .  A
N1146      C1150   1.347       .  A
N1147      C1148   1.345       .  A
C1148      C1149   1.385       .  A
C1148      H1151   1.082       .  S
C1149      C1150   1.385       .  A
C1149      C2804   1.481       .  S
C1150      H1152   1.082       .  S
N1153      N1154   1.320       .  A
N1153      C1157   1.348       .  A
N1153     Cu1161   2.078       .  S
N1154      C1155   1.343       .  A
N1154     Cu1160   2.064       .  S
C1155      C1156   1.382       .  A
C1155      H1158   1.082       .  S
C1156      C1157   1.387       .  A
C1156      C2824   1.479       .  S
C1157      H1159   1.082       .  S
Cu1160     N1163   2.065       .  S
Cu1161     N1171   2.080       .  S
Cu1162     N1164   2.099       .  S
Cu1162     N1170   2.100       .  S
N1163      N1164   1.322       .  A
N1163      C1167   1.342       .  A
N1164      C1165   1.350       .  A
C1165      C1166   1.392       .  A
C1165      H1168   1.081       .  S
C1166      C1167   1.383       .  A
C1166      C3684   1.488       .  S
C1167      H1169   1.082       .  S
N1170      N1171   1.324       .  A
N1170      C1174   1.350       .  A
N1171      C1172   1.344       .  A
C1172      C1173   1.384       .  A
C1172      H1175   1.082       .  S
C1173      C1174   1.390       .  A
C1173      C2773   1.488       .  S
C1174      H1176   1.081       .  S
N1177      N1178   1.320       .  A
N1177      C1181   1.347       .  A
N1177     Cu1185   2.077       .  S
N1178      C1179   1.339       .  A
N1178     Cu1184   2.053       .  S
C1179      C1180   1.381       .  A
C1179      H1182   1.082       .  S
C1180      C1181   1.388       .  A
C1180      C2764   1.478       .  S
C1181      H1183   1.082       .  S
Cu1184     N1187   2.053       .  S
Cu1185     N1195   2.079       .  S
Cu1186     N1188   2.092       .  S
Cu1186     N1194   2.093       .  S
N1187      N1188   1.321       .  A
N1187      C1191   1.342       .  A
N1188      C1189   1.349       .  A
C1189      C1190   1.389       .  A
C1189      H1192   1.081       .  S
C1190      C1191   1.379       .  A
C1190      C2724   1.477       .  S
C1191      H1193   1.081       .  S
N1194      N1195   1.324       .  A
N1194      C1198   1.347       .  A
N1195      C1196   1.346       .  A
C1196      C1197   1.385       .  A
C1196      H1199   1.082       .  S
C1197      C1198   1.387       .  A
C1197      C2733   1.484       .  S
C1198      H1200   1.081       .  S
N1201      N1202   1.320       .  A
N1201      C1205   1.349       .  A
N1201     Cu1209   2.080       .  S
N1202      C1203   1.339       .  A
N1202     Cu1208   2.054       .  S
C1203      C1204   1.380       .  A
C1203      H1206   1.081       .  S
C1204      C1205   1.387       .  A
C1204      C2753   1.476       .  S
C1205      H1207   1.082       .  S
Cu1208     N1211   2.054       .  S
Cu1209     N1219   2.083       .  S
Cu1210     N1212   2.096       .  S
Cu1210     N1218   2.098       .  S
N1211      N1212   1.320       .  A
N1211      C1215   1.341       .  A
N1212      C1213   1.350       .  A
C1213      C1214   1.394       .  A
C1213      H1216   1.080       .  S
C1214      C1215   1.383       .  A
C1214      C2693   1.490       .  S
C1215      H1217   1.082       .  S
N1218      N1219   1.324       .  A
N1218      C1222   1.349       .  A
N1219      C1220   1.344       .  A
C1220      C1221   1.386       .  A
C1220      H1223   1.082       .  S
C1221      C1222   1.390       .  A
C1221      C2784   1.492       .  S
C1222      H1224   1.080       .  S
N1225      N1226   1.319       .  A
N1225      C1229   1.347       .  A
N1225     Cu1233   2.068       .  S
N1226      C1227   1.341       .  A
N1226     Cu1232   2.058       .  S
C1227      C1228   1.381       .  A
C1227      H1230   1.082       .  S
C1228      C1229   1.385       .  A
C1228      C2673   1.472       .  S
C1229      H1231   1.082       .  S
Cu1232     N1235   2.057       .  S
Cu1233     N1243   2.071       .  S
Cu1234     N1236   2.090       .  S
Cu1234     N1242   2.091       .  S
N1235      N1236   1.321       .  A
N1235      C1239   1.339       .  A
N1236      C1237   1.350       .  A
C1237      C1238   1.391       .  A
C1237      H1240   1.082       .  S
C1238      C1239   1.381       .  A
C1238      C4364   1.482       .  S
C1239      H1241   1.081       .  S
N1242      N1243   1.324       .  A
N1242      C1246   1.349       .  A
N1243      C1244   1.342       .  A
C1244      C1245   1.381       .  A
C1244      H1247   1.082       .  S
C1245      C1246   1.387       .  A
C1245      C2653   1.479       .  S
C1246      H1248   1.081       .  S
N1249      N1250   1.318       .  A
N1249      C1253   1.347       .  A
N1249     Cu1257   2.068       .  S
N1250      C1251   1.339       .  A
N1250     Cu1256   2.047       .  S
C1251      C1252   1.381       .  A
C1251      H1254   1.082       .  S
C1252      C1253   1.388       .  A
C1252      C2684   1.476       .  S
C1253      H1255   1.081       .  S
Cu1256     N1259   2.048       .  S
Cu1257     N1267   2.070       .  S
Cu1258     N1260   2.103       .  S
Cu1258     N1266   2.105       .  S
N1259      N1260   1.321       .  A
N1259      C1263   1.339       .  A
N1260      C1261   1.351       .  A
C1261      C1262   1.394       .  A
C1261      H1264   1.081       .  S
C1262      C1263   1.379       .  A
C1262      C4184   1.486       .  S
C1263      H1265   1.081       .  S
N1266      N1267   1.326       .  A
N1266      C1270   1.352       .  A
N1267      C1268   1.341       .  A
C1268      C1269   1.378       .  A
C1268      H1271   1.082       .  S
C1269      C1270   1.389       .  A
C1269      C2744   1.480       .  S
C1270      H1272   1.081       .  S
N1273      N1274   1.318       .  A
N1273      C1277   1.347       .  A
N1273     Cu1281   2.069       .  S
N1274      C1275   1.340       .  A
N1274     Cu1280   2.051       .  S
C1275      C1276   1.382       .  A
C1275      H1278   1.081       .  S
C1276      C1277   1.387       .  A
C1276      C2633   1.477       .  S
C1277      H1279   1.082       .  S
Cu1280     N1283   2.051       .  S
Cu1281     N1291   2.071       .  S
Cu1282     N1284   2.100       .  S
Cu1282     N1290   2.101       .  S
N1283      N1284   1.321       .  A
N1283      C1287   1.340       .  A
N1284      C1285   1.351       .  A
C1285      C1286   1.392       .  A
C1285      H1288   1.082       .  S
C1286      C1287   1.379       .  A
C1286      C2613   1.483       .  S
C1287      H1289   1.081       .  S
N1290      N1291   1.326       .  A
N1290      C1294   1.350       .  A
N1291      C1292   1.343       .  A
C1292      C1293   1.378       .  A
C1292      H1295   1.082       .  S
C1293      C1294   1.386       .  A
C1293      C2793   1.475       .  S
C1294      H1296   1.081       .  S
N1297      N1298   1.321       .  A
N1297      C1301   1.346       .  A
N1297     Cu1305   2.072       .  S
N1298      C1299   1.342       .  A
N1298     Cu1304   2.058       .  S
C1299      C1300   1.380       .  A
C1299      H1302   1.082       .  S
C1300      C1301   1.384       .  A
C1300      C2644   1.472       .  S
C1301      H1303   1.082       .  S
Cu1304     N1307   2.058       .  S
Cu1305     N1315   2.073       .  S
Cu1306     N1308   2.080       .  S
Cu1306     N1314   2.081       .  S
N1307      N1308   1.321       .  A
N1307      C1311   1.340       .  A
N1308      C1309   1.348       .  A
C1309      C1310   1.388       .  A
C1309      H1312   1.081       .  S
C1310      C1311   1.380       .  A
C1310      C2593   1.477       .  S
C1311      H1313   1.081       .  S
N1314      N1315   1.324       .  A
N1314      C1318   1.345       .  A
N1315      C1316   1.344       .  A
C1316      C1317   1.383       .  A
C1316      H1319   1.082       .  S
C1317      C1318   1.384       .  A
C1317      C2664   1.478       .  S
C1318      H1320   1.081       .  S
C1321      N1322   1.360   1_455  A
C1321      N1326   1.361       .  A
C1321      C2584   1.485       .  S
N1322      C1323   1.360       .  A
C1323      N1324   1.359   1_655  A
C1323      C2533   1.475       .  S
N1324      C1325   1.359       .  A
C1325      N1326   1.361       .  A
C1325      C2564   1.482       .  S
N1327      N1328   1.321       .  A
N1327      C1331   1.339       .  A
N1327     Cu1335   2.045       .  S
N1328      C1329   1.351       .  A
N1328     Cu1334   2.094       .  S
C1329      C1330   1.388       .  A
C1329      H1332   1.081       .  S
C1330      C1331   1.374       .  A
C1330      C2864   1.469       .  S
C1331      H1333   1.082       .  S
Cu1334     N1337   2.096       .  S
Cu1335     N1345   2.044   1_655  S
Cu1336     N1338   2.094       .  S
Cu1336     N1344   2.092       .  S
N1337      N1338   1.326   1_655  A
N1337      C1341   1.348       .  A
N1338      C1339   1.347       .  A
C1339      C1340   1.385       .  A
C1339      H1342   1.082       .  S
C1340      C1341   1.385   1_455  A
C1340      C2573   1.484       .  S
C1341      H1343   1.082       .  S
N1344      N1345   1.320       .  A
N1344      C1348   1.351       .  A
N1345      C1346   1.339       .  A
C1346      C1347   1.377       .  A
C1346      H1349   1.082       .  S
C1347      C1348   1.391       .  A
C1347      C4593   1.477       .  S
C1348      H1350   1.082       .  S
C1351      N1352   1.361       .  A
C1351      N1356   1.364   1_556  A
C1351      C2513   1.499       .  S
N1352      C1353   1.361       .  A
C1353      N1354   1.358       .  A
C1353      C2493   1.489       .  S
N1354      C1355   1.357   1_556  A
C1355      N1356   1.361       .  A
C1355      C2553   1.483       .  S
N1357      N1358   1.321       .  A
N1357      C1361   1.339       .  A
N1357     Cu1365   2.052       .  S
N1358      C1359   1.353       .  A
N1358     Cu1364   2.102       .  S
C1359      C1360   1.393       .  A
C1359      H1362   1.081       .  S
C1360      C1361   1.379       .  A
C1360      C2704   1.484       .  S
C1361      H1363   1.082       .  S
Cu1364     N1367   2.104       .  S
Cu1365     N1375   2.053   1_556  S
Cu1366     N1368   2.090       .  S
Cu1366     N1374   2.088       .  S
N1367      N1368   1.326   1_556  A
N1367      C1371   1.349       .  A
N1368      C1369   1.347       .  A
C1369      C1370   1.384   1_554  A
C1369      H1372   1.081       .  S
C1370      C1371   1.387       .  A
C1370      C2524   1.487       .  S
C1371      H1373   1.081       .  S
N1374      N1375   1.320       .  A
N1374      C1378   1.350       .  A
N1375      C1376   1.340       .  A
C1376      C1377   1.381       .  A
C1376      H1379   1.083       .  S
C1377      C1378   1.391       .  A
C1377      C4584   1.483       .  S
C1378      H1380   1.082       .  S
C1381      N1382   1.363       .  A
C1381      N1386   1.359   1_545  A
C1381      C2473   1.495       .  S
N1382      C1383   1.360       .  A
C1383      N1384   1.358       .  A
C1383      C2453   1.486       .  S
N1384      C1385   1.357   1_545  A
C1385      N1386   1.358       .  A
C1385      C2544   1.480       .  S
N1387      N1388   1.320       .  A
N1387      C1391   1.339       .  A
N1387     Cu1395   2.056   1_565  S
N1388      C1389   1.350       .  A
N1388     Cu1394   2.085       .  S
C1389      C1390   1.391       .  A
C1389      H1392   1.082       .  S
C1390      C1391   1.381       .  A
C1390      C2844   1.481       .  S
C1391      H1393   1.082       .  S
Cu1394     N1397   2.086   1_565  S
Cu1395     N1405   2.056       .  S
Cu1396     N1398   2.093       .  S
Cu1396     N1404   2.090       .  S
N1397      N1398   1.326       .  A
N1397      C1401   1.347   1_545  A
N1398      C1399   1.346       .  A
C1399      C1400   1.385       .  A
C1399      H1402   1.081       .  S
C1400      C1401   1.383   1_545  A
C1400      C2484   1.481       .  S
C1401      H1403   1.082       .  S
N1404      N1405   1.320       .  A
N1404      C1408   1.352       .  A
N1405      C1406   1.339       .  A
C1406      C1407   1.381       .  A
C1406      H1409   1.082       .  S
C1407      C1408   1.391       .  A
C1407      C2433   1.482       .  S
C1408      H1410   1.081       .  S
C1411      N1412   1.357   1_554  A
C1411      N1416   1.355       .  A
C1411      C2424   1.479       .  S
N1412      C1413   1.359       .  A
C1413      N1414   1.367   1_556  A
C1413      C2393   1.504       .  S
N1414      C1415   1.366       .  A
C1415      N1416   1.358       .  A
C1415      C2464   1.497       .  S
N1417      N1418   1.320       .  A
N1417      C1421   1.340       .  A
N1417     Cu1425   2.052   1_556  S
N1418      C1419   1.349       .  A
N1418     Cu1424   2.088       .  S
C1419      C1420   1.390       .  A
C1419      H1422   1.081       .  S
C1420      C1421   1.379       .  A
C1420      C3104   1.478       .  S
C1421      H1423   1.082       .  S
Cu1424     N1427   2.090       .  S
Cu1425     N1435   2.054       .  S
Cu1426     N1428   2.094       .  S
Cu1426     N1434   2.092       .  S
N1427      N1428   1.325   1_556  A
N1427      C1431   1.346       .  A
N1428      C1429   1.348       .  A
C1429      C1430   1.388       .  A
C1429      H1432   1.081       .  S
C1430      C1431   1.387   1_554  A
C1430      C2413   1.489       .  S
C1431      H1433   1.081       .  S
N1434      N1435   1.319       .  A
N1434      C1438   1.349       .  A
N1435      C1436   1.341       .  A
C1436      C1437   1.384       .  A
C1436      H1439   1.082       .  S
C1437      C1438   1.394       .  A
C1437      C2373   1.489       .  S
C1438      H1440   1.080       .  S
C1441      N1442   1.362       .  A
C1441      N1446   1.358   1_655  A
C1441      C2353   1.477       .  S
N1442      C1443   1.363       .  A
C1443      N1444   1.358   1_655  A
C1443      C2404   1.486       .  S
N1444      C1445   1.358       .  A
C1445      N1446   1.358       .  A
C1445      C2333   1.482       .  S
N1447      N1448   1.320       .  A
N1447      C1451   1.343       .  A
N1447     Cu1455   2.065       .  S
N1448      C1449   1.346       .  A
N1448     Cu1454   2.076       .  S
C1449      C1450   1.387       .  A
C1449      H1452   1.081       .  S
C1450      C1451   1.383       .  A
C1450      C3933   1.478       .  S
C1451      H1453   1.082       .  S
Cu1454     N1457   2.078       .  S
Cu1455     N1465   2.065   1_455  S
Cu1456     N1458   2.094       .  S
Cu1456     N1464   2.093       .  S
N1457      N1458   1.323   1_455  A
N1457      C1461   1.346       .  A
N1458      C1459   1.347       .  A
C1459      C1460   1.389   1_655  A
C1459      H1462   1.081       .  S
C1460      C1461   1.385       .  A
C1460      C2364   1.488   1_455  S
C1461      H1463   1.082       .  S
N1464      N1465   1.322       .  A
N1464      C1468   1.350       .  A
N1465      C1466   1.342       .  A
C1466      C1467   1.381       .  A
C1466      H1469   1.082       .  S
C1467      C1468   1.389       .  A
C1467      C3084   1.480       .  S
C1468      H1470   1.082       .  S
C1471      N1472   1.359       .  A
C1471      N1476   1.359       .  A
C1471      C2313   1.481       .  S
N1472      C1473   1.358       .  A
C1473      N1474   1.358       .  A
C1473      C2504   1.475   1_545  S
N1474      C1475   1.359       .  A
C1475      N1476   1.360       .  A
C1475      C2344   1.479       .  S
N1477      N1478   1.320       .  A
N1477      C1481   1.341       .  A
N1477     Cu1485   2.056   1_565  S
N1478      C1479   1.349       .  A
N1478     Cu1484   2.084       .  S
C1479      C1480   1.389       .  A
C1479      H1482   1.082       .  S
C1480      C1481   1.380       .  A
C1480      C2713   1.478       .  S
C1481      H1483   1.082       .  S
Cu1484     N1487   2.086   1_565  S
Cu1485     N1495   2.056       .  S
Cu1486     N1488   2.099       .  S
Cu1486     N1494   2.097       .  S
N1487      N1488   1.325       .  A
N1487      C1491   1.346       .  A
N1488      C1489   1.348       .  A
C1489      C1490   1.388       .  A
C1489      H1492   1.082       .  S
C1490      C1491   1.385       .  A
C1490      C2324   1.488       .  S
C1491      H1493   1.080   1_545  S
N1494      N1495   1.321       .  A
N1494      C1498   1.352       .  A
N1495      C1496   1.339       .  A
C1496      C1497   1.381       .  A
C1496      H1499   1.082       .  S
C1497      C1498   1.392       .  A
C1497      C3904   1.484       .  S
C1498      H1500   1.081       .  S
N1501      N1502   1.321       .  A
N1501      C1505   1.348       .  A
N1501     Cu1509   2.078       .  S
N1502      C1503   1.342       .  A
N1502     Cu1508   2.066       .  S
C1503      C1504   1.383       .  A
C1503      H1506   1.081       .  S
C1504      C1505   1.386       .  A
C1504      C2293   1.478       .  S
C1505      H1507   1.082       .  S
Cu1508     N1511   2.066       .  S
Cu1509     N1519   2.080       .  S
Cu1510     N1512   2.089       .  S
Cu1510     N1518   2.090       .  S
N1511      N1512   1.322       .  A
N1511      C1515   1.343       .  A
N1512      C1513   1.349       .  A
C1513      C1514   1.388       .  A
C1513      H1516   1.082       .  S
C1514      C1515   1.383       .  A
C1514      C4024   1.482       .  S
C1515      H1517   1.081       .  S
N1518      N1519   1.324       .  A
N1518      C1522   1.348       .  A
N1519      C1520   1.345       .  A
C1520      C1521   1.383       .  A
C1520      H1523   1.081       .  S
C1521      C1522   1.387       .  A
C1521      C2273   1.483       .  S
C1522      H1524   1.081       .  S
N1525      N1526   1.322       .  A
N1525      C1529   1.349       .  A
N1525     Cu1533   2.081       .  S
N1526      C1527   1.343       .  A
N1526     Cu1532   2.070       .  S
C1527      C1528   1.383       .  A
C1527      H1530   1.082       .  S
C1528      C1529   1.387       .  A
C1528      C2304   1.480       .  S
C1529      H1531   1.082       .  S
Cu1532     N1535   2.070       .  S
Cu1533     N1543   2.082       .  S
Cu1534     N1536   2.080       .  S
Cu1534     N1542   2.081       .  S
N1535      N1536   1.322       .  A
N1535      C1539   1.345       .  A
N1536      C1537   1.346       .  A
C1537      C1538   1.385       .  A
C1537      H1540   1.082       .  S
C1538      C1539   1.382       .  A
C1538      C4233   1.475       .  S
C1539      H1541   1.082       .  S
N1542      N1543   1.322       .  A
N1542      C1546   1.346       .  A
N1543      C1544   1.345       .  A
C1544      C1545   1.388       .  A
C1544      H1547   1.081       .  S
C1545      C1546   1.388       .  A
C1545      C2264   1.490       .  S
C1546      H1548   1.081       .  S
N1549      N1550   1.322       .  A
N1549      C1553   1.348       .  A
N1549     Cu1557   2.075       .  S
N1550      C1551   1.343       .  A
N1550     Cu1556   2.071       .  S
C1551      C1552   1.382       .  A
C1551      H1554   1.082       .  S
C1552      C1553   1.384       .  A
C1552      C2233   1.473       .  S
C1553      H1555   1.082       .  S
Cu1556     N1559   2.071       .  S
Cu1557     N1567   2.076       .  S
Cu1558     N1560   2.083       .  S
Cu1558     N1566   2.083       .  S
N1559      N1560   1.322       .  A
N1559      C1563   1.344       .  A
N1560      C1561   1.347       .  A
C1561      C1562   1.388       .  A
C1561      H1564   1.081       .  S
C1562      C1563   1.384       .  A
C1562      C2384   1.483       .  S
C1563      H1565   1.082       .  S
N1566      N1567   1.324       .  A
N1566      C1570   1.348       .  A
N1567      C1568   1.344       .  A
C1568      C1569   1.382       .  A
C1568      H1571   1.081       .  S
C1569      C1570   1.384       .  A
C1569      C2213   1.477       .  S
C1570      H1572   1.081       .  S
N1573      N1574   1.319       .  A
N1573      C1577   1.348       .  A
N1573     Cu1581   2.078       .  S
N1574      C1575   1.340       .  A
N1574     Cu1580   2.056       .  S
C1575      C1576   1.383       .  A
C1575      H1578   1.082       .  S
C1576      C1577   1.390       .  A
C1576      C2244   1.483       .  S
C1577      H1579   1.081       .  S
Cu1580     N1583   2.056       .  S
Cu1581     N1591   2.080       .  S
Cu1582     N1584   2.096       .  S
Cu1582     N1590   2.097       .  S
N1583      N1584   1.321       .  A
N1583      C1587   1.342       .  A
N1584      C1585   1.349       .  A
C1585      C1586   1.392       .  A
C1585      H1588   1.082       .  S
C1586      C1587   1.381       .  A
C1586      C2444   1.484       .  S
C1587      H1589   1.081       .  S
N1590      N1591   1.324       .  A
N1590      C1594   1.349       .  A
N1591      C1592   1.343       .  A
C1592      C1593   1.386       .  A
C1592      H1595   1.082       .  S
C1593      C1594   1.392       .  A
C1593      C2253   1.494       .  S
C1594      H1596   1.079       .  S
N1597      N1598   1.321       .  A
N1597      C1601   1.346       .  A
N1597     Cu1605   2.066       .  S
N1598      C1599   1.344       .  A
N1598     Cu1604   2.071       .  S
C1599      C1600   1.382       .  A
C1599      H1602   1.081       .  S
C1600      C1601   1.381       .  A
C1600      C2193   1.470       .  S
C1601      H1603   1.081       .  S
Cu1604     N1607   2.072       .  S
Cu1605     N1615   2.067       .  S
Cu1606     N1608   2.079       .  S
Cu1606     N1614   2.079       .  S
N1607      N1608   1.322       .  A
N1607      C1611   1.345       .  A
N1608      C1609   1.344       .  A
C1609      C1610   1.385       .  A
C1609      H1612   1.081       .  S
C1610      C1611   1.383       .  A
C1610      C3384   1.478       .  S
C1611      H1613   1.081       .  S
N1614      N1615   1.322       .  A
N1614      C1618   1.347       .  A
N1615      C1616   1.342       .  A
C1616      C1617   1.382       .  A
C1616      H1619   1.082       .  S
C1617      C1618   1.386       .  A
C1617      C2173   1.478       .  S
C1618      H1620   1.081       .  S
N1621      N1622   1.321       .  A
N1621      C1625   1.347       .  A
N1621     Cu1629   2.079       .  S
N1622      C1623   1.342       .  A
N1622     Cu1628   2.060       .  S
C1623      C1624   1.381       .  A
C1623      H1626   1.082       .  S
C1624      C1625   1.386       .  A
C1624      C2204   1.477       .  S
C1625      H1627   1.082       .  S
Cu1628     N1631   2.060       .  S
Cu1629     N1639   2.081       .  S
Cu1630     N1632   2.084       .  S
Cu1630     N1638   2.084       .  S
N1631      N1632   1.321       .  A
N1631      C1635   1.342       .  A
N1632      C1633   1.348       .  A
C1633      C1634   1.388       .  A
C1633      H1636   1.082       .  S
C1634      C1635   1.381       .  A
C1634      C3464   1.478       .  S
C1635      H1637   1.081       .  S
N1638      N1639   1.324       .  A
N1638      C1642   1.347       .  A
N1639      C1640   1.344       .  A
C1640      C1641   1.383       .  A
C1640      H1643   1.082       .  S
C1641      C1642   1.385       .  A
C1641      C2224   1.480       .  S
C1642      H1644   1.081       .  S
N1645      N1646   1.320       .  A
N1645      C1649   1.347       .  A
N1645     Cu1653   2.068       .  S
N1646      C1647   1.341       .  A
N1646     Cu1652   2.062       .  S
C1647      C1648   1.382       .  A
C1647      H1650   1.082       .  S
C1648      C1649   1.385       .  A
C1648      C2153   1.475       .  S
C1649      H1651   1.082       .  S
Cu1652     N1655   2.062       .  S
Cu1653     N1663   2.069       .  S
Cu1654     N1656   2.092       .  S
Cu1654     N1662   2.092       .  S
N1655      N1656   1.321       .  A
N1655      C1659   1.341       .  A
N1656      C1657   1.349       .  A
C1657      C1658   1.392       .  A
C1657      H1660   1.080       .  S
C1658      C1659   1.383       .  A
C1658      C2133   1.487       .  S
C1659      H1661   1.082       .  S
N1662      N1663   1.323       .  A
N1662      C1666   1.348       .  A
N1663      C1664   1.341       .  A
C1664      C1665   1.384       .  A
C1664      H1667   1.082       .  S
C1665      C1666   1.391       .  A
C1665      C2184   1.489       .  S
C1666      H1668   1.079       .  S
N1669      N1670   1.321       .  A
N1669      C1673   1.347       .  A
N1669     Cu1677   2.071       .  S
N1670      C1671   1.342       .  A
N1670     Cu1676   2.069       .  S
C1671      C1672   1.383       .  A
C1671      H1674   1.082       .  S
C1672      C1673   1.385       .  A
C1672      C2164   1.477       .  S
C1673      H1675   1.082       .  S
Cu1676     N1679   2.069       .  S
Cu1677     N1687   2.072       .  S
Cu1678     N1680   2.098       .  S
Cu1678     N1686   2.098       .  S
N1679      N1680   1.322       .  A
N1679      C1683   1.344       .  A
N1680      C1681   1.349       .  A
C1681      C1682   1.391       .  A
C1681      H1684   1.081       .  S
C1682      C1683   1.384       .  A
C1682      C2113   1.488       .  S
C1683      H1685   1.081       .  S
N1686      N1687   1.323       .  A
N1686      C1690   1.349       .  A
N1687      C1688   1.343       .  A
C1688      C1689   1.385       .  A
C1688      H1691   1.082       .  S
C1689      C1690   1.392       .  A
C1689      C2284   1.491       .  S
C1690      H1692   1.080       .  S
N1693      N1694   1.320       .  A
N1693      C1697   1.338       .  A
N1693     Cu1701   2.046       .  S
N1694      C1695   1.351       .  A
N1694     Cu1700   2.092       .  S
C1695      C1696   1.391       .  A
C1695      H1698   1.082       .  S
C1696      C1697   1.378       .  A
C1696      C4504   1.478       .  S
C1697      H1699   1.082       .  S
Cu1700     N1703   2.094       .  S
Cu1701     N1711   2.046   1_455  S
Cu1702     N1704   2.089       .  S
Cu1702     N1710   2.086       .  S
N1703      N1704   1.325   1_455  A
N1703      C1707   1.347       .  A
N1704      C1705   1.345       .  A
C1705      C1706   1.386   1_655  A
C1705      H1708   1.082       .  S
C1706      C1707   1.388       .  A
C1706      C2093   1.490       .  S
C1707      H1709   1.080       .  S
N1710      N1711   1.319       .  A
N1710      C1714   1.351       .  A
N1711      C1712   1.338       .  A
C1712      C1713   1.378       .  A
C1712      H1715   1.082       .  S
C1713      C1714   1.390       .  A
C1713      C2944   1.476       .  S
C1714      H1716   1.081       .  S
C1717      N1718   1.360       .  A
C1717      N1722   1.356   1_655  A
C1717      C2104   1.474       .  S
N1718      C1719   1.362       .  A
C1719      N1720   1.365       .  A
C1719      C2053   1.498       .  S
N1720      C1721   1.361   1_655  A
C1721      N1722   1.357       .  A
C1721      C2073   1.484       .  S
N1723      N1724   1.320       .  A
N1723      C1727   1.338       .  A
N1723     Cu1731   2.043       .  S
N1724      C1725   1.353       .  A
N1724     Cu1730   2.095       .  S
C1725      C1726   1.390       .  A
C1725      H1728   1.081       .  S
C1726      C1727   1.375       .  A
C1726      C2144   1.472       .  S
C1727      H1729   1.082       .  S
Cu1730     N1733   2.099       .  S
Cu1731     N1741   2.043       .  S
Cu1732     N1734   2.100       .  S
Cu1732     N1740   2.097       .  S
N1733      N1734   1.327       .  A
N1733      C1737   1.347       .  A
N1734      C1735   1.348       .  A
C1735      C1736   1.386       .  A
C1735      H1738   1.082       .  S
C1736      C1737   1.386       .  A
C1736      C2033   1.487       .  S
C1737      H1739   1.081       .  S
N1740      N1741   1.320       .  A
N1740      C1744   1.353       .  A
N1741      C1742   1.338       .  A
C1742      C1743   1.377       .  A
C1742      H1745   1.082       .  S
C1743      C1744   1.392       .  A
C1743      C2984   1.479       .  S
C1744      H1746   1.082       .  S
C1747      N1748   1.358       .  A
C1747      N1752   1.361       .  A
C1747      C2044   1.495       .  S
N1748      C1749   1.359       .  A
C1749      N1750   1.361       .  A
C1749      C2064   1.484       .  S
N1750      C1751   1.362       .  A
C1751      N1752   1.362       .  A
C1751      C2024   1.487       .  S
C1753      N1754   1.360       .  A
C1753      N1758   1.362       .  A
C1753      C1993   1.491       .  S
N1754      C1755   1.359       .  A
C1755      N1756   1.361       .  A
C1755      C2013   1.496       .  S
N1756      C1757   1.360       .  A
C1757      N1758   1.362       .  A
C1757      C1973   1.497       .  S
N1759      N1760   1.319       .  A
N1759      C1763   1.340       .  A
N1759     Cu1767   2.053       .  S
N1760      C1761   1.350       .  A
N1760     Cu1766   2.089       .  S
C1761      C1762   1.393       .  A
C1761      H1764   1.081       .  S
C1762      C1763   1.383       .  A
C1762      C3184   1.488       .  S
C1763      H1765   1.082       .  S
Cu1766     N1769   2.091       .  S
Cu1767     N1777   2.053       .  S
Cu1768     N1770   2.095       .  S
Cu1768     N1776   2.093       .  S
N1769      N1770   1.326       .  A
N1769      C1773   1.347       .  A
N1770      C1771   1.348       .  A
C1771      C1772   1.384       .  A
C1771      H1774   1.081       .  S
C1772      C1773   1.384       .  A
C1772      C2004   1.483       .  S
C1773      H1775   1.081       .  S
N1776      N1777   1.320       .  A
N1776      C1780   1.352       .  A
N1777      C1778   1.339       .  A
C1778      C1779   1.380       .  A
C1778      H1781   1.082       .  S
C1779      C1780   1.392       .  A
C1779      C2124   1.482       .  S
C1780      H1782   1.081       .  S
N1783      N1784   1.320       .  A
N1783      C1787   1.340       .  A
N1783     Cu1791   2.063   1_655  S
N1784      C1785   1.352       .  A
N1784     Cu1790   2.093       .  S
C1785      C1786   1.394       .  A
C1785      H1788   1.081       .  S
C1786      C1787   1.384       .  A
C1786      C3144   1.490       .  S
C1787      H1789   1.082       .  S
Cu1790     N1793   2.095       .  S
Cu1791     N1801   2.063       .  S
Cu1792     N1794   2.089       .  S
Cu1792     N1800   2.087       .  S
N1793      N1794   1.324   1_655  A
N1793      C1797   1.347       .  A
N1794      C1795   1.347       .  A
C1795      C1796   1.388       .  A
C1795      H1798   1.082       .  S
C1796      C1797   1.390   1_455  A
C1796      C1953   1.494       .  S
C1797      H1799   1.081       .  S
N1800      N1801   1.321       .  A
N1800      C1804   1.349       .  A
N1801      C1802   1.343       .  A
C1802      C1803   1.382       .  A
C1802      H1805   1.082       .  S
C1803      C1804   1.388       .  A
C1803      C3824   1.480       .  S
C1804      H1806   1.081       .  S
C1807      N1808   1.360       .  A
C1807      N1812   1.360   1_455  A
C1807      C1964   1.477       .  S
N1808      C1809   1.362       .  A
C1809      N1810   1.362       .  A
C1809      C1933   1.490       .  S
N1810      C1811   1.362   1_455  A
C1811      N1812   1.360       .  A
C1811      C1984   1.491       .  S
N1813      N1814   1.319       .  A
N1813      C1817   1.337       .  A
N1813     Cu1821   2.042       .  S
N1814      C1815   1.351       .  A
N1814     Cu1820   2.087       .  S
C1815      C1816   1.391       .  A
C1815      H1818   1.081       .  S
C1816      C1817   1.378       .  A
C1816      C2604   1.478       .  S
C1817      H1819   1.082       .  S
Cu1820     N1823   2.090       .  S
Cu1821     N1831   2.042       .  S
Cu1822     N1824   2.088       .  S
Cu1822     N1830   2.085       .  S
N1823      N1824   1.326       .  A
N1823      C1827   1.346       .  A
N1824      C1825   1.347       .  A
C1825      C1826   1.383       .  A
C1825      H1828   1.081       .  S
C1826      C1827   1.383       .  A
C1826      C1924   1.479       .  S
C1827      H1829   1.082       .  S
N1830      N1831   1.320       .  A
N1830      C1834   1.350       .  A
N1831      C1832   1.338       .  A
C1832      C1833   1.377       .  A
C1832      H1835   1.082       .  S
C1833      C1834   1.388       .  A
C1833      C4513   1.472       .  S
C1834      H1836   1.081       .  S
C1837      N1838   1.359       .  A
C1837      N1842   1.362       .  A
C1837      C1913   1.502       .  S
N1838      C1839   1.361       .  A
C1839      N1840   1.360       .  A
C1839      C2084   1.495       .  S
N1840      C1841   1.361       .  A
C1841      N1842   1.360       .  A
C1841      C1893   1.491       .  S
N1843      N1844   1.320       .  A
N1843      C1847   1.342       .  A
N1843     Cu1851   2.061       .  S
N1844      C1845   1.350       .  A
N1844     Cu1850   2.091       .  S
C1845      C1846   1.391       .  A
C1845      H1848   1.081       .  S
C1846      C1847   1.383       .  A
C1846      C2624   1.483       .  S
C1847      H1849   1.082       .  S
Cu1850     N1853   2.093       .  S
Cu1851     N1861   2.061       .  S
Cu1852     N1854   2.097       .  S
Cu1852     N1860   2.095       .  S
N1853      N1854   1.326       .  A
N1853      C1857   1.347       .  A
N1854      C1855   1.348       .  A
C1855      C1856   1.387       .  A
C1855      H1858   1.082       .  S
C1856      C1857   1.386       .  A
C1856      C1873   1.489       .  S
C1857      H1859   1.081       .  S
N1860      N1861   1.322       .  A
N1860      C1864   1.352       .  A
N1861      C1862   1.341       .  A
C1862      C1863   1.379       .  A
C1862      H1865   1.082       .  S
C1863      C1864   1.389       .  A
C1863      C3844   1.478       .  S
C1864      H1866   1.081       .  S
C1867      N1868   1.362       .  A
C1867      N1872   1.361       .  A
C1867      C1884   1.493       .  S
N1868      C1869   1.365       .  A
C1869      N1870   1.360       .  A
C1869      C1944   1.504       .  S
N1870      C1871   1.361       .  A
C1871      N1872   1.359       .  A
C1871      C1904   1.489       .  S
C1873      C1874   1.414       .  A
C1873      C1878   1.406       .  A
C1874      C1875   1.403       .  A
C1874     Br1890   1.919       .  S
C1875      C1876   1.404       .  A
C1875      H1879   1.083       .  S
C1876      C1877   1.410       .  A
C1876      C1880   1.490       .  S
C1877      C1878   1.403       .  A
C1877     Br1889   1.919       .  S
C1878      H1881   1.083       .  S
C1880      C1882   1.405       .  A
C1880      C1886   1.409       .  A
C1882      C1883   1.405       .  A
C1882      H1887   1.083       .  S
C1883      C1884   1.416       .  A
C1883     Br1891   1.920       .  S
C1884      C1885   1.408       .  A
C1885      C1886   1.401       .  A
C1885      H1888   1.082       .  S
C1886     Br1892   1.919       .  S
C1893      C1894   1.417       .  A
C1893      C1898   1.407       .  A
C1894      C1895   1.404       .  A
C1894     Br1910   1.920       .  S
C1895      C1896   1.403       .  A
C1895      H1899   1.084       .  S
C1896      C1897   1.408       .  A
C1896      C1900   1.487       .  S
C1897      C1898   1.400       .  A
C1897     Br1909   1.920       .  S
C1898      H1901   1.082       .  S
C1900      C1902   1.403       .  A
C1900      C1906   1.409       .  A
C1902      C1903   1.403       .  A
C1902      H1907   1.084       .  S
C1903      C1904   1.416       .  A
C1903     Br1911   1.919       .  S
C1904      C1905   1.406       .  A
C1905      C1906   1.401       .  A
C1905      H1908   1.083       .  S
C1906     Br1912   1.920       .  S
C1913      C1914   1.424       .  A
C1913      C1918   1.413       .  A
C1914      C1915   1.402       .  A
C1914     Br1930   1.922       .  S
C1915      C1916   1.398       .  A
C1915      H1919   1.084       .  S
C1916      C1917   1.403       .  A
C1916      C1920   1.480       .  S
C1917      C1918   1.400       .  A
C1917     Br1929   1.919       .  S
C1918      H1921   1.082       .  S
C1920      C1922   1.402       .  A
C1920      C1926   1.407       .  A
C1922      C1923   1.402       .  A
C1922      H1927   1.083       .  S
C1923      C1924   1.412       .  A
C1923     Br1931   1.919       .  S
C1924      C1925   1.404       .  A
C1925      C1926   1.400       .  A
C1925      H1928   1.083       .  S
C1926     Br1932   1.918       .  S
C1933      C1934   1.412       .  A
C1933      C1938   1.406       .  A
C1934      C1935   1.403       .  A
C1934     Br1950   1.920       .  S
C1935      C1936   1.406       .  A
C1935      H1939   1.084       .  S
C1936      C1937   1.413       .  A
C1936      C1940   1.496       .  S
C1937      C1938   1.404       .  A
C1937     Br1949   1.919       .  S
C1938      H1941   1.084       .  S
C1940      C1942   1.403       .  A
C1940      C1946   1.410       .  A
C1942      C1943   1.405       .  A
C1942      H1947   1.084       .  S
C1943      C1944   1.423       .  A
C1943     Br1951   1.921       .  S
C1944      C1945   1.410       .  A
C1945      C1946   1.403       .  A
C1945      H1948   1.083       .  S
C1946     Br1952   1.920       .  S
C1953      C1954   1.417   1_455  A
C1953      C1958   1.409       .  A
C1954      C1955   1.403       .  A
C1954     Br1970   1.920       .  S
C1955      C1956   1.402   1_655  A
C1955      H1959   1.084       .  S
C1956      C1957   1.407       .  A
C1956      C1960   1.486       .  S
C1957      C1958   1.401       .  A
C1957     Br1969   1.919       .  S
C1958      H1961   1.082       .  S
C1960      C1962   1.404   1_455  A
C1960      C1966   1.410       .  A
C1962      C1963   1.402       .  A
C1962      H1967   1.083       .  S
C1963      C1964   1.408   1_655  A
C1963     Br1971   1.918       .  S
C1964      C1965   1.403       .  A
C1965      C1966   1.403       .  A
C1965      H1968   1.083       .  S
C1966     Br1972   1.918       .  S
C1973      C1974   1.420       .  A
C1973      C1978   1.410       .  A
C1974      C1975   1.402       .  A
C1974     Br1990   1.922       .  S
C1975      C1976   1.402       .  A
C1975      H1979   1.084       .  S
C1976      C1977   1.408       .  A
C1976      C1980   1.489       .  S
C1977      C1978   1.403       .  A
C1977     Br1989   1.918       .  S
C1978      H1981   1.083       .  S
C1980      C1982   1.404       .  A
C1980      C1986   1.408       .  A
C1982      C1983   1.404       .  A
C1982      H1987   1.084       .  S
C1983      C1984   1.416       .  A
C1983     Br1991   1.920       .  S
C1984      C1985   1.407       .  A
C1985      C1986   1.401       .  A
C1985      H1988   1.083       .  S
C1986     Br1992   1.919       .  S
C1993      C1994   1.416       .  A
C1993      C1998   1.407       .  A
C1994      C1995   1.402       .  A
C1994     Br2010   1.921       .  S
C1995      C1996   1.404       .  A
C1995      H1999   1.084       .  S
C1996      C1997   1.411       .  A
C1996      C2000   1.492       .  S
C1997      C1998   1.402       .  A
C1997     Br2009   1.920       .  S
C1998      H2001   1.083       .  S
C2000      C2002   1.405       .  A
C2000      C2006   1.413       .  A
C2002      C2003   1.401       .  A
C2002      H2007   1.083       .  S
C2003      C2004   1.411       .  A
C2003     Br2011   1.919       .  S
C2004      C2005   1.404       .  A
C2005      C2006   1.402       .  A
C2005      H2008   1.083       .  S
C2006     Br2012   1.920       .  S
C2013      C2014   1.419       .  A
C2013      C2018   1.409       .  A
C2014      C2015   1.403       .  A
C2014     Br2030   1.921       .  S
C2015      C2016   1.403       .  A
C2015      H2019   1.084       .  S
C2016      C2017   1.408       .  A
C2016      C2020   1.489       .  S
C2017      C2018   1.401       .  A
C2017     Br2029   1.919       .  S
C2018      H2021   1.083       .  S
C2020      C2022   1.405       .  A
C2020      C2026   1.410       .  A
C2022      C2023   1.403       .  A
C2022      H2027   1.084       .  S
C2023      C2024   1.414       .  A
C2023     Br2031   1.920       .  S
C2024      C2025   1.406       .  A
C2025      C2026   1.401       .  A
C2025      H2028   1.084       .  S
C2026     Br2032   1.919       .  S
C2033      C2034   1.413       .  A
C2033      C2038   1.405       .  A
C2034      C2035   1.402       .  A
C2034     Br2050   1.919       .  S
C2035      C2036   1.404       .  A
C2035      H2039   1.083       .  S
C2036      C2037   1.412       .  A
C2036      C2040   1.491       .  S
C2037      C2038   1.402       .  A
C2037     Br2049   1.920       .  S
C2038      H2041   1.083       .  S
C2040      C2042   1.403       .  A
C2040      C2046   1.410       .  A
C2042      C2043   1.402       .  A
C2042      H2047   1.084       .  S
C2043      C2044   1.419       .  A
C2043     Br2051   1.922       .  S
C2044      C2045   1.409       .  A
C2045      C2046   1.402       .  A
C2045      H2048   1.083       .  S
C2046     Br2052   1.919       .  S
C2053      C2054   1.421       .  A
C2053      C2058   1.410       .  A
C2054      C2055   1.403       .  A
C2054     Br2070   1.920       .  S
C2055      C2056   1.400       .  A
C2055      H2059   1.084       .  S
C2056      C2057   1.406       .  A
C2056      C2060   1.485       .  S
C2057      C2058   1.401       .  A
C2057     Br2069   1.919       .  S
C2058      H2061   1.083       .  S
C2060      C2062   1.402       .  A
C2060      C2066   1.409       .  A
C2062      C2063   1.402       .  A
C2062      H2067   1.083       .  S
C2063      C2064   1.413       .  A
C2063     Br2071   1.920       .  S
C2064      C2065   1.405       .  A
C2065      C2066   1.403       .  A
C2065      H2068   1.083       .  S
C2066     Br2072   1.919       .  S
C2073      C2074   1.414       .  A
C2073      C2078   1.405       .  A
C2074      C2075   1.401       .  A
C2074     Br2090   1.921       .  S
C2075      C2076   1.402       .  A
C2075      H2079   1.084       .  S
C2076      C2077   1.409       .  A
C2076      C2080   1.485       .  S
C2077      C2078   1.403       .  A
C2077     Br2089   1.918       .  S
C2078      H2081   1.084       .  S
C2080      C2082   1.402       .  A
C2080      C2086   1.406       .  A
C2082      C2083   1.403       .  A
C2082      H2087   1.084       .  S
C2083      C2084   1.418       .  A
C2083     Br2091   1.919       .  S
C2084      C2085   1.409       .  A
C2085      C2086   1.401       .  A
C2085      H2088   1.082       .  S
C2086     Br2092   1.918       .  S
C2093      C2094   1.416       .  A
C2093      C2098   1.408   1_455  A
C2094      C2095   1.402       .  A
C2094     Br2110   1.919       .  S
C2095      C2096   1.403   1_455  A
C2095      H2099   1.083       .  S
C2096      C2097   1.407       .  A
C2096      C2100   1.485       .  S
C2097      C2098   1.399       .  A
C2097     Br2109   1.919       .  S
C2098      H2101   1.082       .  S
C2100      C2102   1.405       .  A
C2100      C2106   1.410   1_655  A
C2102      C2103   1.401       .  A
C2102      H2107   1.083       .  S
C2103      C2104   1.408       .  A
C2103     Br2111   1.917       .  S
C2104      C2105   1.402   1_655  A
C2105      C2106   1.400       .  A
C2105      H2108   1.083       .  S
C2106     Br2112   1.919       .  S
C2113      C2114   1.413       .  A
C2113      C2118   1.408       .  A
C2114      C2115   1.401       .  A
C2114     Br2130   1.919       .  S
C2115      C2116   1.403       .  A
C2115      H2119   1.084       .  S
C2116      C2117   1.408       .  A
C2116      C2120   1.485       .  S
C2117      C2118   1.402       .  A
C2117     Br2129   1.919       .  S
C2118      H2121   1.083       .  S
C2120      C2122   1.401       .  A
C2120      C2126   1.412       .  A
C2122      C2123   1.397       .  A
C2122      H2127   1.084       .  S
C2123      C2124   1.412       .  A
C2123     Br2131   1.921       .  S
C2124      C2125   1.405       .  A
C2125      C2126   1.404       .  A
C2125      H2128   1.083       .  S
C2126     Br2132   1.918       .  S
C2133      C2134   1.414       .  A
C2133      C2138   1.409       .  A
C2134      C2135   1.402       .  A
C2134     Br2150   1.919       .  S
C2135      C2136   1.402       .  A
C2135      H2139   1.084       .  S
C2136      C2137   1.404       .  A
C2136      C2140   1.479       .  S
C2137      C2138   1.399       .  A
C2137     Br2149   1.918       .  S
C2138      H2141   1.083       .  S
C2140      C2142   1.402       .  A
C2140      C2146   1.408       .  A
C2142      C2143   1.399       .  A
C2142      H2147   1.083       .  S
C2143      C2144   1.408       .  A
C2143     Br2151   1.919       .  S
C2144      C2145   1.403       .  A
C2145      C2146   1.402       .  A
C2145      H2148   1.083       .  S
C2146     Br2152   1.918       .  S
C2153      C2154   1.411       .  A
C2153      C2158   1.403       .  A
C2154      C2155   1.402       .  A
C2154     Br2170   1.918       .  S
C2155      C2156   1.402       .  A
C2155      H2159   1.083       .  S
C2156      C2157   1.405       .  A
C2156      C2160   1.473       .  S
C2157      C2158   1.394       .  A
C2157     Br2169   1.919       .  S
C2158      H2161   1.084       .  S
C2160      C2162   1.402       .  A
C2160      C2166   1.406       .  A
C2162      C2163   1.403       .  A
C2162      H2167   1.083       .  S
C2163      C2164   1.413       .  A
C2163     Br2171   1.918       .  S
C2164      C2165   1.403       .  A
C2165      C2166   1.394       .  A
C2165      H2168   1.083       .  S
C2166     Br2172   1.920       .  S
C2173      C2174   1.412       .  A
C2173      C2178   1.404       .  A
C2174      C2175   1.398       .  A
C2174     Br2190   1.920       .  S
C2175      C2176   1.402       .  A
C2175      H2179   1.084       .  S
C2176      C2177   1.410       .  A
C2176      C2180   1.481       .  S
C2177      C2178   1.400       .  A
C2177     Br2189   1.919       .  S
C2178      H2181   1.083       .  S
C2180      C2182   1.403       .  A
C2180      C2186   1.406       .  A
C2182      C2183   1.402       .  A
C2182      H2187   1.083       .  S
C2183      C2184   1.416       .  A
C2183     Br2191   1.919       .  S
C2184      C2185   1.408       .  A
C2185      C2186   1.396       .  A
C2185      H2188   1.082       .  S
C2186     Br2192   1.921       .  S
C2193      C2194   1.406       .  A
C2193      C2198   1.402       .  A
C2194      C2195   1.397       .  A
C2194     Br2210   1.918       .  S
C2195      C2196   1.403       .  A
C2195      H2199   1.083       .  S
C2196      C2197   1.410       .  A
C2196      C2200   1.479       .  S
C2197      C2198   1.400       .  A
C2197     Br2209   1.919       .  S
C2198      H2201   1.083       .  S
C2200      C2202   1.402       .  A
C2200      C2206   1.408       .  A
C2202      C2203   1.397       .  A
C2202      H2207   1.084       .  S
C2203      C2204   1.411       .  A
C2203     Br2211   1.920       .  S
C2204      C2205   1.404       .  A
C2205      C2206   1.400       .  A
C2205      H2208   1.083       .  S
C2206     Br2212   1.918       .  S
C2213      C2214   1.408       .  A
C2213      C2218   1.404       .  A
C2214      C2215   1.397       .  A
C2214     Br2230   1.919       .  S
C2215      C2216   1.404       .  A
C2215      H2219   1.083       .  S
C2216      C2217   1.411       .  A
C2216      C2220   1.485       .  S
C2217      C2218   1.403       .  A
C2217     Br2229   1.918       .  S
C2218      H2221   1.083       .  S
C2220      C2222   1.404       .  A
C2220      C2226   1.410       .  A
C2222      C2223   1.402       .  A
C2222      H2227   1.083       .  S
C2223      C2224   1.411       .  A
C2223     Br2231   1.918       .  S
C2224      C2225   1.403       .  A
C2225      C2226   1.398       .  A
C2225      H2228   1.083       .  S
C2226     Br2232   1.920       .  S
C2233      C2234   1.408       .  A
C2233      C2238   1.403       .  A
C2234      C2235   1.398       .  A
C2234     Br2250   1.919       .  S
C2235      C2236   1.401       .  A
C2235      H2239   1.083       .  S
C2236      C2237   1.407       .  A
C2236      C2240   1.475       .  S
C2237      C2238   1.401       .  A
C2237     Br2249   1.918       .  S
C2238      H2241   1.083       .  S
C2240      C2242   1.401       .  A
C2240      C2246   1.405       .  A
C2242      C2243   1.403       .  A
C2242      H2247   1.083       .  S
C2243      C2244   1.415       .  A
C2243     Br2251   1.918       .  S
C2244      C2245   1.406       .  A
C2245      C2246   1.394       .  A
C2245      H2248   1.083       .  S
C2246     Br2252   1.920       .  S
C2253      C2254   1.418       .  A
C2253      C2258   1.409       .  A
C2254      C2255   1.403       .  A
C2254     Br2270   1.919       .  S
C2255      C2256   1.402       .  A
C2255      H2259   1.084       .  S
C2256      C2257   1.407       .  A
C2256      C2260   1.484       .  S
C2257      C2258   1.399       .  A
C2257     Br2269   1.920       .  S
C2258      H2261   1.082       .  S
C2260      C2262   1.401       .  A
C2260      C2266   1.408       .  A
C2262      C2263   1.400       .  A
C2262      H2267   1.084       .  S
C2263      C2264   1.416       .  A
C2263     Br2271   1.920       .  S
C2264      C2265   1.408       .  A
C2265      C2266   1.401       .  A
C2265      H2268   1.083       .  S
C2266     Br2272   1.919       .  S
C2273      C2274   1.413       .  A
C2273      C2278   1.405       .  A
C2274      C2275   1.403       .  A
C2274     Br2290   1.919       .  S
C2275      C2276   1.402       .  A
C2275      H2279   1.083       .  S
C2276      C2277   1.407       .  A
C2276      C2280   1.481       .  S
C2277      C2278   1.400       .  A
C2277     Br2289   1.918       .  S
C2278      H2281   1.083       .  S
C2280      C2282   1.402       .  A
C2280      C2286   1.406       .  A
C2282      C2283   1.404       .  A
C2282      H2287   1.083       .  S
C2283      C2284   1.416       .  A
C2283     Br2291   1.918       .  S
C2284      C2285   1.408       .  A
C2285      C2286   1.399       .  A
C2285      H2288   1.082       .  S
C2286     Br2292   1.919       .  S
C2293      C2294   1.411       .  A
C2293      C2298   1.405       .  A
C2294      C2295   1.397       .  A
C2294     Br2310   1.920       .  S
C2295      C2296   1.400       .  A
C2295      H2299   1.084       .  S
C2296      C2297   1.407       .  A
C2296      C2300   1.477       .  S
C2297      C2298   1.402       .  A
C2297     Br2309   1.917       .  S
C2298      H2301   1.083       .  S
C2300      C2302   1.402       .  A
C2300      C2306   1.406       .  A
C2302      C2303   1.403       .  A
C2302      H2307   1.083       .  S
C2303      C2304   1.412       .  A
C2303     Br2311   1.918       .  S
C2304      C2305   1.404       .  A
C2305      C2306   1.397       .  A
C2305      H2308   1.083       .  S
C2306     Br2312   1.919       .  S
C2313      C2314   1.413       .  A
C2313      C2318   1.405       .  A
C2314      C2315   1.401       .  A
C2314     Br2330   1.921       .  S
C2315      C2316   1.403       .  A
C2315      H2319   1.084       .  S
C2316      C2317   1.408       .  A
C2316      C2320   1.483       .  S
C2317      C2318   1.401       .  A
C2317     Br2329   1.918       .  S
C2318      H2321   1.084       .  S
C2320      C2322   1.402       .  A
C2320      C2326   1.407       .  A
C2322      C2323   1.402       .  A
C2322      H2327   1.083   1_545  S
C2323      C2324   1.416       .  A
C2323     Br2331   1.920   1_545  S
C2324      C2325   1.406       .  A
C2325      C2326   1.400       .  A
C2325      H2328   1.083       .  S
C2326     Br2332   1.919       .  S
C2333      C2334   1.415       .  A
C2333      C2338   1.406       .  A
C2334      C2335   1.401       .  A
C2334     Br2350   1.921       .  S
C2335      C2336   1.402       .  A
C2335      H2339   1.084       .  S
C2336      C2337   1.405       .  A
C2336      C2340   1.477       .  S
C2337      C2338   1.397       .  A
C2337     Br2349   1.918       .  S
C2338      H2341   1.083       .  S
C2340      C2342   1.401       .  A
C2340      C2346   1.407       .  A
C2342      C2343   1.399       .  A
C2342      H2347   1.084       .  S
C2343      C2344   1.412       .  A
C2343     Br2351   1.920       .  S
C2344      C2345   1.406       .  A
C2345      C2346   1.400       .  A
C2345      H2348   1.084       .  S
C2346     Br2352   1.918       .  S
C2353      C2354   1.411       .  A
C2353      C2358   1.402   1_655  A
C2354      C2355   1.403       .  A
C2354     Br2370   1.919       .  S
C2355      C2356   1.404       .  A
C2355      H2359   1.083       .  S
C2356      C2357   1.409   1_655  A
C2356      C2360   1.484       .  S
C2357      C2358   1.400       .  A
C2357     Br2369   1.918       .  S
C2358      H2361   1.083       .  S
C2360      C2362   1.401       .  A
C2360      C2366   1.408   1_655  A
C2362      C2363   1.400       .  A
C2362      H2367   1.084       .  S
C2363      C2364   1.415       .  A
C2363     Br2371   1.919       .  S
C2364      C2365   1.408   1_655  A
C2365      C2366   1.403       .  A
C2365      H2368   1.083       .  S
C2366     Br2372   1.919       .  S
C2373      C2374   1.415       .  A
C2373      C2378   1.408       .  A
C2374      C2375   1.403       .  A
C2374     Br2390   1.919       .  S
C2375      C2376   1.403       .  A
C2375      H2379   1.083       .  S
C2376      C2377   1.407       .  A
C2376      C2380   1.483       .  S
C2377      C2378   1.398       .  A
C2377     Br2389   1.921       .  S
C2378      H2381   1.082       .  S
C2380      C2382   1.403       .  A
C2380      C2386   1.409       .  A
C2382      C2383   1.402       .  A
C2382      H2387   1.083       .  S
C2383      C2384   1.412       .  A
C2383     Br2391   1.919       .  S
C2384      C2385   1.405       .  A
C2385      C2386   1.399       .  A
C2385      H2388   1.083       .  S
C2386     Br2392   1.920       .  S
C2393      C2394   1.424       .  A
C2393      C2398   1.412       .  A
C2394      C2395   1.399       .  A
C2394     Br2410   1.920       .  S
C2395      C2396   1.398       .  A
C2395      H2399   1.084       .  S
C2396      C2397   1.410       .  A
C2396      C2400   1.491       .  S
C2397      C2398   1.405       .  A
C2397     Br2409   1.919       .  S
C2398      H2401   1.083       .  S
C2400      C2402   1.404       .  A
C2400      C2406   1.412       .  A
C2402      C2403   1.403       .  A
C2402      H2407   1.084       .  S
C2403      C2404   1.415       .  A
C2403     Br2411   1.921   1_655  S
C2404      C2405   1.403       .  A
C2405      C2406   1.400       .  A
C2405      H2408   1.084       .  S
C2406     Br2412   1.920       .  S
C2413      C2414   1.414   1_554  A
C2413      C2418   1.407       .  A
C2414      C2415   1.401       .  A
C2414     Br2430   1.920       .  S
C2415      C2416   1.403   1_556  A
C2415      H2419   1.084       .  S
C2416      C2417   1.410       .  A
C2416      C2420   1.487       .  S
C2417      C2418   1.402       .  A
C2417     Br2429   1.919       .  S
C2418      H2421   1.083       .  S
C2420      C2422   1.403       .  A
C2420      C2426   1.412       .  A
C2422      C2423   1.400       .  A
C2422      H2427   1.083       .  S
C2423      C2424   1.410       .  A
C2423     Br2431   1.918       .  S
C2424      C2425   1.404       .  A
C2425      C2426   1.402       .  A
C2425      H2428   1.083   1_554  S
C2426     Br2432   1.919   1_554  S
C2433      C2434   1.413       .  A
C2433      C2438   1.406       .  A
C2434      C2435   1.397       .  A
C2434     Br2450   1.920       .  S
C2435      C2436   1.399       .  A
C2435      H2439   1.083       .  S
C2436      C2437   1.409       .  A
C2436      C2440   1.480       .  S
C2437      C2438   1.404       .  A
C2437     Br2449   1.918       .  S
C2438      H2441   1.083       .  S
C2440      C2442   1.401       .  A
C2440      C2446   1.408       .  A
C2442      C2443   1.402       .  A
C2442      H2447   1.083       .  S
C2443      C2444   1.416       .  A
C2443     Br2451   1.920       .  S
C2444      C2445   1.404       .  A
C2445      C2446   1.399       .  A
C2445      H2448   1.083       .  S
C2446     Br2452   1.919       .  S
C2453      C2454   1.414       .  A
C2453      C2458   1.406       .  A
C2454      C2455   1.404       .  A
C2454     Br2470   1.920       .  S
C2455      C2456   1.404       .  A
C2455      H2459   1.084       .  S
C2456      C2457   1.408       .  A
C2456      C2460   1.485       .  S
C2457      C2458   1.399       .  A
C2457     Br2469   1.919       .  S
C2458      H2461   1.083       .  S
C2460      C2462   1.399       .  A
C2460      C2466   1.408       .  A
C2462      C2463   1.401       .  A
C2462      H2467   1.084       .  S
C2463      C2464   1.422       .  A
C2463     Br2471   1.923       .  S
C2464      C2465   1.409       .  A
C2465      C2466   1.403       .  A
C2465      H2468   1.083       .  S
C2466     Br2472   1.919       .  S
C2473      C2474   1.422   1_545  A
C2473      C2478   1.410       .  A
C2474      C2475   1.402       .  A
C2474     Br2490   1.922       .  S
C2475      C2476   1.400   1_565  A
C2475      H2479   1.084       .  S
C2476      C2477   1.404       .  A
C2476      C2480   1.479       .  S
C2477      C2478   1.398       .  A
C2477     Br2489   1.918       .  S
C2478      H2481   1.083       .  S
C2480      C2482   1.401       .  A
C2480      C2486   1.407   1_545  A
C2482      C2483   1.399       .  A
C2482      H2487   1.084       .  S
C2483      C2484   1.412       .  A
C2483     Br2491   1.919       .  S
C2484      C2485   1.406       .  A
C2485      C2486   1.402   1_545  A
C2485      H2488   1.083   1_545  S
C2486     Br2492   1.918       .  S
C2493      C2494   1.416       .  A
C2493      C2498   1.409       .  A
C2494      C2495   1.402       .  A
C2494     Br2510   1.920       .  S
C2495      C2496   1.401       .  A
C2495      H2499   1.084       .  S
C2496      C2497   1.405       .  A
C2496      C2500   1.479       .  S
C2497      C2498   1.399       .  A
C2497     Br2509   1.919       .  S
C2498      H2501   1.083       .  S
C2500      C2502   1.402       .  A
C2500      C2506   1.408       .  A
C2502      C2503   1.399       .  A
C2502      H2507   1.084       .  S
C2503      C2504   1.409       .  A
C2503     Br2511   1.919       .  S
C2504      C2505   1.404       .  A
C2505      C2506   1.401       .  A
C2505      H2508   1.084   1_565  S
C2506     Br2512   1.917       .  S
C2513      C2514   1.420       .  A
C2513      C2518   1.409   1_556  A
C2514      C2515   1.404       .  A
C2514     Br2530   1.922       .  S
C2515      C2516   1.403       .  A
C2515      H2519   1.084       .  S
C2516      C2517   1.409   1_556  A
C2516      C2520   1.493       .  S
C2517      C2518   1.402       .  A
C2517     Br2529   1.919       .  S
C2518      H2521   1.083       .  S
C2520      C2522   1.405   1_556  A
C2520      C2526   1.412       .  A
C2522      C2523   1.404       .  A
C2522      H2527   1.083       .  S
C2523      C2524   1.413   1_554  A
C2523     Br2531   1.919       .  S
C2524      C2525   1.404       .  A
C2525      C2526   1.402       .  A
C2525      H2528   1.083       .  S
C2526     Br2532   1.919       .  S
C2533      C2534   1.409       .  A
C2533      C2538   1.405       .  A
C2534      C2535   1.397       .  A
C2534     Br2550   1.914       .  S
C2535      C2536   1.400       .  A
C2535      H2539   1.083       .  S
C2536      C2537   1.407       .  A
C2536      C2540   1.476       .  S
C2537      C2538   1.402       .  A
C2537     Br2549   1.918       .  S
C2538      H2541   1.083       .  S
C2540      C2542   1.401       .  A
C2540      C2546   1.405       .  A
C2542      C2543   1.401       .  A
C2542      H2547   1.084       .  S
C2543      C2544   1.414       .  A
C2543     Br2551   1.920       .  S
C2544      C2545   1.405       .  A
C2545      C2546   1.397       .  A
C2545      H2548   1.083       .  S
C2546     Br2552   1.918       .  S
C2553      C2554   1.414       .  A
C2553      C2558   1.405       .  A
C2554      C2555   1.401       .  A
C2554     Br2570   1.920   1_554  S
C2555      C2556   1.401       .  A
C2555      H2559   1.084       .  S
C2556      C2557   1.407       .  A
C2556      C2560   1.481       .  S
C2557      C2558   1.402       .  A
C2557     Br2569   1.917       .  S
C2558      H2561   1.083       .  S
C2560      C2562   1.401       .  A
C2560      C2566   1.408       .  A
C2562      C2563   1.401       .  A
C2562      H2567   1.084       .  S
C2563      C2564   1.412       .  A
C2563     Br2571   1.919       .  S
C2564      C2565   1.406       .  A
C2565      C2566   1.402       .  A
C2565      H2568   1.084       .  S
C2566     Br2572   1.918       .  S
C2573      C2574   1.412       .  A
C2573      C2578   1.405   1_455  A
C2574      C2575   1.401       .  A
C2574     Br2590   1.919       .  S
C2575      C2576   1.402       .  A
C2575      H2579   1.083       .  S
C2576      C2577   1.410   1_455  A
C2576      C2580   1.485       .  S
C2577      C2578   1.403       .  A
C2577     Br2589   1.919       .  S
C2578      H2581   1.083       .  S
C2580      C2582   1.402   1_455  A
C2580      C2586   1.409       .  A
C2582      C2583   1.400       .  A
C2582      H2587   1.084       .  S
C2583      C2584   1.413   1_655  A
C2583     Br2591   1.913       .  S
C2584      C2585   1.406       .  A
C2585      C2586   1.402       .  A
C2585      H2588   1.083       .  S
C2586     Br2592   1.918       .  S
C2593      C2594   1.411       .  A
C2593      C2598   1.405       .  A
C2594      C2595   1.400       .  A
C2594     Br2610   1.919       .  S
C2595      C2596   1.404       .  A
C2595      H2599   1.083       .  S
C2596      C2597   1.405       .  A
C2596      C2600   1.477       .  S
C2597      C2598   1.396       .  A
C2597     Br2609   1.918       .  S
C2598      H2601   1.083       .  S
C2600      C2602   1.404       .  A
C2600      C2606   1.404       .  A
C2602      C2603   1.401       .  A
C2602      H2607   1.083       .  S
C2603      C2604   1.411       .  A
C2603     Br2611   1.919       .  S
C2604      C2605   1.405       .  A
C2605      C2606   1.396       .  A
C2605      H2608   1.083       .  S
C2606     Br2612   1.919       .  S
C2613      C2614   1.416       .  A
C2613      C2618   1.404       .  A
C2614      C2615   1.400       .  A
C2614     Br2630   1.921       .  S
C2615      C2616   1.399       .  A
C2615      H2619   1.083       .  S
C2616      C2617   1.408       .  A
C2616      C2620   1.479       .  S
C2617      C2618   1.402       .  A
C2617     Br2629   1.918       .  S
C2618      H2621   1.083       .  S
C2620      C2622   1.400       .  A
C2620      C2626   1.407       .  A
C2622      C2623   1.400       .  A
C2622      H2627   1.084       .  S
C2623      C2624   1.414       .  A
C2623     Br2631   1.920       .  S
C2624      C2625   1.405       .  A
C2625      C2626   1.401       .  A
C2625      H2628   1.083       .  S
C2626     Br2632   1.917       .  S
C2633      C2634   1.413       .  A
C2633      C2638   1.405       .  A
C2634      C2635   1.395       .  A
C2634     Br2650   1.921       .  S
C2635      C2636   1.399       .  A
C2635      H2639   1.084       .  S
C2636      C2637   1.405       .  A
C2636      C2640   1.471       .  S
C2637      C2638   1.399       .  A
C2637     Br2649   1.918       .  S
C2638      H2641   1.083       .  S
C2640      C2642   1.401       .  A
C2640      C2646   1.406       .  A
C2642      C2643   1.399       .  A
C2642      H2647   1.083       .  S
C2643      C2644   1.410       .  A
C2643     Br2651   1.919       .  S
C2644      C2645   1.403       .  A
C2645      C2646   1.396       .  A
C2645      H2648   1.083       .  S
C2646     Br2652   1.919       .  S
C2653      C2654   1.412       .  A
C2653      C2658   1.404       .  A
C2654      C2655   1.402       .  A
C2654     Br2670   1.918       .  S
C2655      C2656   1.403       .  A
C2655      H2659   1.083       .  S
C2656      C2657   1.408       .  A
C2656      C2660   1.481       .  S
C2657      C2658   1.396       .  A
C2657     Br2669   1.920       .  S
C2658      H2661   1.083       .  S
C2660      C2662   1.403       .  A
C2660      C2666   1.408       .  A
C2662      C2663   1.397       .  A
C2662      H2667   1.084       .  S
C2663      C2664   1.411       .  A
C2663     Br2671   1.920       .  S
C2664      C2665   1.405       .  A
C2665      C2666   1.400       .  A
C2665      H2668   1.084       .  S
C2666     Br2672   1.918       .  S
C2673      C2674   1.410       .  A
C2673      C2678   1.404       .  A
C2674      C2675   1.396       .  A
C2674     Br2690   1.920       .  S
C2675      C2676   1.401       .  A
C2675      H2679   1.084       .  S
C2676      C2677   1.406       .  A
C2676      C2680   1.472       .  S
C2677      C2678   1.400       .  A
C2677     Br2689   1.917       .  S
C2678      H2681   1.083       .  S
C2680      C2682   1.401       .  A
C2680      C2686   1.405       .  A
C2682      C2683   1.400       .  A
C2682      H2687   1.083       .  S
C2683      C2684   1.413       .  A
C2683     Br2691   1.918       .  S
C2684      C2685   1.404       .  A
C2685      C2686   1.394       .  A
C2685      H2688   1.084       .  S
C2686     Br2692   1.920       .  S
C2693      C2694   1.415       .  A
C2693      C2698   1.410       .  A
C2694      C2695   1.402       .  A
C2694     Br2710   1.918       .  S
C2695      C2696   1.402       .  A
C2695      H2699   1.084       .  S
C2696      C2697   1.404       .  A
C2696      C2700   1.479       .  S
C2697      C2698   1.399       .  A
C2697     Br2709   1.918       .  S
C2698      H2701   1.083       .  S
C2700      C2702   1.398       .  A
C2700      C2706   1.409       .  A
C2702      C2703   1.397       .  A
C2702      H2707   1.084       .  S
C2703      C2704   1.414       .  A
C2703     Br2711   1.921       .  S
C2704      C2705   1.406       .  A
C2705      C2706   1.405       .  A
C2705      H2708   1.083       .  S
C2706     Br2712   1.918       .  S
C2713      C2714   1.411       .  A
C2713      C2718   1.404       .  A
C2714      C2715   1.403       .  A
C2714     Br2730   1.918       .  S
C2715      C2716   1.403       .  A
C2715      H2719   1.083       .  S
C2716      C2717   1.405       .  A
C2716      C2720   1.477       .  S
C2717      C2718   1.396       .  A
C2717     Br2729   1.919       .  S
C2718      H2721   1.083       .  S
C2720      C2722   1.401       .  A
C2720      C2726   1.408       .  A
C2722      C2723   1.400       .  A
C2722      H2727   1.083       .  S
C2723      C2724   1.412       .  A
C2723     Br2731   1.919       .  S
C2724      C2725   1.403       .  A
C2725      C2726   1.399       .  A
C2725      H2728   1.083       .  S
C2726     Br2732   1.918       .  S
C2733      C2734   1.412       .  A
C2733      C2738   1.405       .  A
C2734      C2735   1.401       .  A
C2734     Br2750   1.920       .  S
C2735      C2736   1.406       .  A
C2735      H2739   1.083       .  S
C2736      C2737   1.411       .  A
C2736      C2740   1.491       .  S
C2737      C2738   1.401       .  A
C2737     Br2749   1.919       .  S
C2738      H2741   1.083       .  S
C2740      C2742   1.408       .  A
C2740      C2746   1.412       .  A
C2742      C2743   1.404       .  A
C2742      H2747   1.083       .  S
C2743      C2744   1.409       .  A
C2743     Br2751   1.918       .  S
C2744      C2745   1.403       .  A
C2745      C2746   1.398       .  A
C2745      H2748   1.084       .  S
C2746     Br2752   1.921       .  S
C2753      C2754   1.413       .  A
C2753      C2758   1.404       .  A
C2754      C2755   1.395       .  A
C2754     Br2770   1.921       .  S
C2755      C2756   1.399       .  A
C2755      H2759   1.084       .  S
C2756      C2757   1.406       .  A
C2756      C2760   1.471       .  S
C2757      C2758   1.400       .  A
C2757     Br2769   1.917       .  S
C2758      H2761   1.083       .  S
C2760      C2762   1.401       .  A
C2760      C2766   1.405       .  A
C2762      C2763   1.401       .  A
C2762      H2767   1.083       .  S
C2763      C2764   1.413       .  A
C2763     Br2771   1.919       .  S
C2764      C2765   1.405       .  A
C2765      C2766   1.393       .  A
C2765      H2768   1.083       .  S
C2766     Br2772   1.920       .  S
C2773      C2774   1.414       .  A
C2773      C2778   1.406       .  A
C2774      C2775   1.400       .  A
C2774     Br2790   1.920       .  S
C2775      C2776   1.402       .  A
C2775      H2779   1.084       .  S
C2776      C2777   1.411       .  A
C2776      C2780   1.489       .  S
C2777      C2778   1.404       .  A
C2777     Br2789   1.919       .  S
C2778      H2781   1.083       .  S
C2780      C2782   1.405       .  A
C2780      C2786   1.409       .  A
C2782      C2783   1.404       .  A
C2782      H2787   1.083       .  S
C2783      C2784   1.415       .  A
C2783     Br2791   1.919       .  S
C2784      C2785   1.407       .  A
C2785      C2786   1.400       .  A
C2785      H2788   1.082       .  S
C2786     Br2792   1.920       .  S
C2793      C2794   1.408       .  A
C2793      C2798   1.401       .  A
C2794      C2795   1.402       .  A
C2794     Br2810   1.918       .  S
C2795      C2796   1.406       .  A
C2795      H2799   1.083       .  S
C2796      C2797   1.412       .  A
C2796      C2800   1.487       .  S
C2797      C2798   1.398       .  A
C2797     Br2809   1.921       .  S
C2798      H2801   1.084       .  S
C2800      C2802   1.404       .  A
C2800      C2806   1.411       .  A
C2802      C2803   1.398       .  A
C2802      H2807   1.083       .  S
C2803      C2804   1.411       .  A
C2803     Br2811   1.920       .  S
C2804      C2805   1.405       .  A
C2805      C2806   1.402       .  A
C2805      H2808   1.083       .  S
C2806     Br2812   1.919       .  S
C2813      C2814   1.412       .  A
C2813      C2818   1.404       .  A
C2814      C2815   1.402       .  A
C2814     Br2830   1.918       .  S
C2815      C2816   1.402       .  A
C2815      H2819   1.083       .  S
C2816      C2817   1.406       .  A
C2816      C2820   1.476       .  S
C2817      C2818   1.396       .  A
C2817     Br2829   1.919       .  S
C2818      H2821   1.083       .  S
C2820      C2822   1.402       .  A
C2820      C2826   1.406       .  A
C2822      C2823   1.401       .  A
C2822      H2827   1.083       .  S
C2823      C2824   1.412       .  A
C2823     Br2831   1.918       .  S
C2824      C2825   1.404       .  A
C2825      C2826   1.398       .  A
C2825      H2828   1.084       .  S
C2826     Br2832   1.919       .  S
C2833      C2834   1.411       .  A
C2833      C2838   1.405       .  A
C2834      C2835   1.401       .  A
C2834     Br2850   1.919       .  S
C2835      C2836   1.405       .  A
C2835      H2839   1.083       .  S
C2836      C2837   1.407       .  A
C2836      C2840   1.482       .  S
C2837      C2838   1.398       .  A
C2837     Br2849   1.918       .  S
C2838      H2841   1.083       .  S
C2840      C2842   1.405       .  A
C2840      C2846   1.406       .  A
C2842      C2843   1.403       .  A
C2842      H2847   1.083       .  S
C2843      C2844   1.411       .  A
C2843     Br2851   1.918       .  S
C2844      C2845   1.405       .  A
C2845      C2846   1.396       .  A
C2845      H2848   1.083       .  S
C2846     Br2852   1.919       .  S
C2853      C2854   1.416       .  A
C2853      C2858   1.409       .  A
C2854      C2855   1.402       .  A
C2854     Br2870   1.919       .  S
C2855      C2856   1.403       .  A
C2855      H2859   1.083       .  S
C2856      C2857   1.405       .  A
C2856      C2860   1.482       .  S
C2857      C2858   1.398       .  A
C2857     Br2869   1.920       .  S
C2858      H2861   1.082       .  S
C2860      C2862   1.404       .  A
C2860      C2866   1.410       .  A
C2862      C2863   1.399       .  A
C2862      H2867   1.083       .  S
C2863      C2864   1.406       .  A
C2863     Br2871   1.918       .  S
C2864      C2865   1.402       .  A
C2865      C2866   1.400       .  A
C2865      H2868   1.083       .  S
C2866     Br2872   1.919       .  S
C2873      C2874   1.415       .  A
C2873      C2878   1.405       .  A
C2874      C2875   1.401       .  A
C2874     Br2890   1.919       .  S
C2875      C2876   1.399       .  A
C2875      H2879   1.083       .  S
C2876      C2877   1.405       .  A
C2876      C2880   1.469       .  S
C2877      C2878   1.392       .  A
C2877     Br2889   1.921       .  S
C2878      H2881   1.083       .  S
C2880      C2882   1.400       .  A
C2880      C2886   1.405       .  A
C2882      C2883   1.398       .  A
C2882      H2887   1.083       .  S
C2883      C2884   1.413       .  A
C2883     Br2891   1.919       .  S
C2884      C2885   1.403       .  A
C2885      C2886   1.393       .  A
C2885      H2888   1.083       .  S
C2886     Br2892   1.919       .  S
C2893      C2894   1.417       .  A
C2893      C2898   1.408       .  A
C2894      C2895   1.399       .  A
C2894     Br2910   1.919       .  S
C2895      C2896   1.401       .  A
C2895      H2899   1.084       .  S
C2896      C2897   1.405       .  A
C2896      C2900   1.475       .  S
C2897      C2898   1.395       .  A
C2897     Br2909   1.921       .  S
C2898      H2901   1.082       .  S
C2900      C2902   1.401       .  A
C2900      C2906   1.408       .  A
C2902      C2903   1.397       .  A
C2902      H2907   1.084       .  S
C2903      C2904   1.414       .  A
C2903     Br2911   1.921       .  S
C2904      C2905   1.403       .  A
C2905      C2906   1.397       .  A
C2905      H2908   1.083       .  S
C2906     Br2912   1.919       .  S
C2913      C2914   1.409       .  A
C2913      C2918   1.404       .  A
C2914      C2915   1.400       .  A
C2914     Br2930   1.918       .  S
C2915      C2916   1.403       .  A
C2915      H2919   1.083       .  S
C2916      C2917   1.407       .  A
C2916      C2920   1.475       .  S
C2917      C2918   1.397       .  A
C2917     Br2929   1.920       .  S
C2918      H2921   1.084       .  S
C2920      C2922   1.402       .  A
C2920      C2926   1.407       .  A
C2922      C2923   1.401       .  A
C2922      H2927   1.083       .  S
C2923      C2924   1.411       .  A
C2923     Br2931   1.919       .  S
C2924      C2925   1.402       .  A
C2925      C2926   1.395       .  A
C2925      H2928   1.083       .  S
C2926     Br2932   1.919       .  S
C2933      C2934   1.410       .  A
C2933      C2938   1.406       .  A
C2934      C2935   1.402       .  A
C2934     Br2950   1.918       .  S
C2935      C2936   1.403       .  A
C2935      H2939   1.083       .  S
C2936      C2937   1.404       .  A
C2936      C2940   1.475       .  S
C2937      C2938   1.397       .  A
C2937     Br2949   1.918       .  S
C2938      H2941   1.083       .  S
C2940      C2942   1.399       .  A
C2940      C2946   1.408       .  A
C2942      C2943   1.397       .  A
C2942      H2947   1.084       .  S
C2943      C2944   1.412       .  A
C2943     Br2951   1.920       .  S
C2944      C2945   1.404       .  A
C2945      C2946   1.402       .  A
C2945      H2948   1.083       .  S
C2946     Br2952   1.917       .  S
C2953      C2954   1.418       .  A
C2953      C2958   1.407       .  A
C2954      C2955   1.400       .  A
C2954     Br2970   1.921       .  S
C2955      C2956   1.400       .  A
C2955      H2959   1.084       .  S
C2956      C2957   1.408       .  A
C2956      C2960   1.483       .  S
C2957      C2958   1.403       .  A
C2957     Br2969   1.919       .  S
C2958      H2961   1.083       .  S
C2960      C2962   1.402       .  A
C2960      C2966   1.408       .  A
C2962      C2963   1.400       .  A
C2962      H2967   1.084       .  S
C2963      C2964   1.415       .  A
C2963     Br2971   1.920       .  S
C2964      C2965   1.406       .  A
C2965      C2966   1.402       .  A
C2965      H2968   1.083       .  S
C2966     Br2972   1.918       .  S
C2973      C2974   1.414       .  A
C2973      C2978   1.407       .  A
C2974      C2975   1.404       .  A
C2974     Br2990   1.919       .  S
C2975      C2976   1.403       .  A
C2975      H2979   1.083       .  S
C2976      C2977   1.404       .  A
C2976      C2980   1.479       .  S
C2977      C2978   1.397       .  A
C2977     Br2989   1.919       .  S
C2978      H2981   1.083       .  S
C2980      C2982   1.399       .  A
C2980      C2986   1.409       .  A
C2982      C2983   1.396       .  A
C2982      H2987   1.083       .  S
C2983      C2984   1.413       .  A
C2983     Br2991   1.921       .  S
C2984      C2985   1.404       .  A
C2985      C2986   1.404       .  A
C2985      H2988   1.083       .  S
C2986     Br2992   1.917       .  S
C2993      C2994   1.412       .  A
C2993      C2998   1.404       .  A
C2994      C2995   1.397       .  A
C2994     Br3010   1.920       .  S
C2995      C2996   1.400       .  A
C2995      H2999   1.084       .  S
C2996      C2997   1.406       .  A
C2996      C3000   1.474       .  S
C2997      C2998   1.400       .  A
C2997     Br3009   1.917       .  S
C2998      H3001   1.083       .  S
C3000      C3002   1.401       .  A
C3000      C3006   1.405       .  A
C3002      C3003   1.401       .  A
C3002      H3007   1.083       .  S
C3003      C3004   1.413       .  A
C3003     Br3011   1.918       .  S
C3004      C3005   1.405       .  A
C3005      C3006   1.397       .  A
C3005      H3008   1.083       .  S
C3006     Br3012   1.919       .  S
C3013      C3014   1.412       .  A
C3013      C3018   1.406       .  A
C3014      C3015   1.403       .  A
C3014     Br3030   1.919       .  S
C3015      C3016   1.405       .  A
C3015      H3019   1.083       .  S
C3016      C3017   1.409       .  A
C3016      C3020   1.487       .  S
C3017      C3018   1.400       .  A
C3017     Br3029   1.920       .  S
C3018      H3021   1.083       .  S
C3020      C3022   1.404       .  A
C3020      C3026   1.407       .  A
C3022      C3023   1.404       .  A
C3022      H3027   1.083       .  S
C3023      C3024   1.416       .  A
C3023     Br3031   1.918       .  S
C3024      C3025   1.409       .  A
C3025      C3026   1.398       .  A
C3025      H3028   1.082       .  S
C3026     Br3032   1.920       .  S
C3033      C3034   1.413       .  A
C3033      C3038   1.406       .  A
C3034      C3035   1.400       .  A
C3034     Br3050   1.919       .  S
C3035      C3036   1.403       .  A
C3035      H3039   1.084       .  S
C3036      C3037   1.408       .  A
C3036      C3040   1.482       .  S
C3037      C3038   1.399       .  A
C3037     Br3049   1.920       .  S
C3038      H3041   1.083       .  S
C3040      C3042   1.401       .  A
C3040      C3046   1.408       .  A
C3042      C3043   1.399       .  A
C3042      H3047   1.084       .  S
C3043      C3044   1.416       .  A
C3043     Br3051   1.921       .  S
C3044      C3045   1.407       .  A
C3045      C3046   1.401       .  A
C3045      H3048   1.083       .  S
C3046     Br3052   1.919       .  S
C3053      C3054   1.411       .  A
C3053      C3058   1.404       .  A
C3054      C3055   1.396       .  A
C3054     Br3070   1.921       .  S
C3055      C3056   1.402       .  A
C3055      H3059   1.083       .  S
C3056      C3057   1.409       .  A
C3056      C3060   1.479       .  S
C3057      C3058   1.399       .  A
C3057     Br3069   1.919       .  S
C3058      H3061   1.083       .  S
C3060      C3062   1.403       .  A
C3060      C3066   1.409       .  A
C3062      C3063   1.396       .  A
C3062      H3067   1.083       .  S
C3063      C3064   1.409       .  A
C3063     Br3071   1.920       .  S
C3064      C3065   1.403       .  A
C3065      C3066   1.399       .  A
C3065      H3068   1.083       .  S
C3066     Br3072   1.918       .  S
C3073      C3074   1.415       .  A
C3073      C3078   1.408       .  A
C3074      C3075   1.402       .  A
C3074     Br3090   1.919       .  S
C3075      C3076   1.402       .  A
C3075      H3079   1.084       .  S
C3076      C3077   1.405       .  A
C3076      C3080   1.481       .  S
C3077      C3078   1.400       .  A
C3077     Br3089   1.919       .  S
C3078      H3081   1.083       .  S
C3080      C3082   1.401       .  A
C3080      C3086   1.409       .  A
C3082      C3083   1.399       .  A
C3082      H3087   1.084       .  S
C3083      C3084   1.412       .  A
C3083     Br3091   1.920       .  S
C3084      C3085   1.405       .  A
C3085      C3086   1.403       .  A
C3085      H3088   1.083       .  S
C3086     Br3092   1.918       .  S
C3093      C3094   1.415       .  A
C3093      C3098   1.407       .  A
C3094      C3095   1.402       .  A
C3094     Br3110   1.919       .  S
C3095      C3096   1.402       .  A
C3095      H3099   1.083       .  S
C3096      C3097   1.404       .  A
C3096      C3100   1.477       .  S
C3097      C3098   1.397       .  A
C3097     Br3109   1.918       .  S
C3098      H3101   1.083       .  S
C3100      C3102   1.400       .  A
C3100      C3106   1.408       .  A
C3102      C3103   1.399       .  A
C3102      H3107   1.083       .  S
C3103      C3104   1.412       .  A
C3103     Br3111   1.920       .  S
C3104      C3105   1.404       .  A
C3105      C3106   1.399       .  A
C3105      H3108   1.083       .  S
C3106     Br3112   1.918       .  S
C3113      C3114   1.413       .  A
C3113      C3118   1.402       .  A
C3114      C3115   1.402       .  A
C3114     Br3130   1.919       .  S
C3115      C3116   1.401       .  A
C3115      H3119   1.083       .  S
C3116      C3117   1.408       .  A
C3116      C3120   1.476       .  S
C3117      C3118   1.398       .  A
C3117     Br3129   1.919       .  S
C3118      H3121   1.083       .  S
C3120      C3122   1.403       .  A
C3120      C3126   1.404       .  A
C3122      C3123   1.404       .  A
C3122      H3127   1.083       .  S
C3123      C3124   1.413       .  A
C3123     Br3131   1.918       .  S
C3124      C3125   1.404       .  A
C3125      C3126   1.395       .  A
C3125      H3128   1.084       .  S
C3126     Br3132   1.919       .  S
C3133      C3134   1.413       .  A
C3133      C3138   1.404       .  A
C3134      C3135   1.400       .  A
C3134     Br3150   1.920       .  S
C3135      C3136   1.401       .  A
C3135      H3139   1.083       .  S
C3136      C3137   1.410       .  A
C3136      C3140   1.482       .  S
C3137      C3138   1.402       .  A
C3137     Br3149   1.919       .  S
C3138      H3141   1.083       .  S
C3140      C3142   1.404       .  A
C3140      C3146   1.405       .  A
C3142      C3143   1.406       .  A
C3142      H3147   1.083       .  S
C3143      C3144   1.415       .  A
C3143     Br3151   1.918       .  S
C3144      C3145   1.407       .  A
C3145      C3146   1.396       .  A
C3145      H3148   1.083       .  S
C3146     Br3152   1.920       .  S
C3153      C3154   1.415       .  A
C3153      C3158   1.408       .  A
C3154      C3155   1.403       .  A
C3154     Br3170   1.919       .  S
C3155      C3156   1.403       .  A
C3155      H3159   1.084       .  S
C3156      C3157   1.407       .  A
C3156      C3160   1.482       .  S
C3157      C3158   1.398       .  A
C3157     Br3169   1.920       .  S
C3158      H3161   1.082       .  S
C3160      C3162   1.401       .  A
C3160      C3166   1.410       .  A
C3162      C3163   1.398       .  A
C3162      H3167   1.084       .  S
C3163      C3164   1.414       .  A
C3163     Br3171   1.920       .  S
C3164      C3165   1.406       .  A
C3165      C3166   1.402       .  A
C3165      H3168   1.083       .  S
C3166     Br3172   1.919       .  S
C3173      C3174   1.413       .  A
C3173      C3178   1.407       .  A
C3174      C3175   1.401       .  A
C3174     Br3190   1.919       .  S
C3175      C3176   1.401       .  A
C3175      H3179   1.083       .  S
C3176      C3177   1.404       .  A
C3176      C3180   1.475       .  S
C3177      C3178   1.398       .  A
C3177     Br3189   1.918       .  S
C3178      H3181   1.083       .  S
C3180      C3182   1.401       .  A
C3180      C3186   1.403       .  A
C3182      C3183   1.403       .  A
C3182      H3187   1.083       .  S
C3183      C3184   1.416       .  A
C3183     Br3191   1.918       .  S
C3184      C3185   1.409       .  A
C3185      C3186   1.396       .  A
C3185      H3188   1.083       .  S
C3186     Br3192   1.919       .  S
C3193      C3194   1.411       .  A
C3193      C3198   1.405       .  A
C3194      C3195   1.396       .  A
C3194     Br3210   1.920       .  S
C3195      C3196   1.402       .  A
C3195      H3199   1.084       .  S
C3196      C3197   1.407       .  A
C3196      C3200   1.476       .  S
C3197      C3198   1.400       .  A
C3197     Br3209   1.918       .  S
C3198      H3201   1.083       .  S
C3200      C3202   1.402       .  A
C3200      C3206   1.407       .  A
C3202      C3203   1.399       .  A
C3202      H3207   1.083       .  S
C3203      C3204   1.411       .  A
C3203     Br3211   1.919       .  S
C3204      C3205   1.405       .  A
C3205      C3206   1.397       .  A
C3205      H3208   1.083       .  S
C3206     Br3212   1.919       .  S
C3213      C3214   1.410       .  A
C3213      C3218   1.403       .  A
C3214      C3215   1.400       .  A
C3214     Br3230   1.918       .  S
C3215      C3216   1.404       .  A
C3215      H3219   1.083       .  S
C3216      C3217   1.410       .  A
C3216      C3220   1.482       .  S
C3217      C3218   1.397       .  A
C3217     Br3229   1.921       .  S
C3218      H3221   1.083       .  S
C3220      C3222   1.403       .  A
C3220      C3226   1.410       .  A
C3222      C3223   1.396       .  A
C3222      H3227   1.083       .  S
C3223      C3224   1.410       .  A
C3223     Br3231   1.920       .  S
C3224      C3225   1.403       .  A
C3225      C3226   1.401       .  A
C3225      H3228   1.083       .  S
C3226     Br3232   1.919       .  S
C3233      C3234   1.413       .  A
C3233      C3238   1.403       .  A
C3234      C3235   1.402       .  A
C3234     Br3250   1.919       .  S
C3235      C3236   1.402       .  A
C3235      H3239   1.083       .  S
C3236      C3237   1.405       .  A
C3236      C3240   1.474       .  S
C3237      C3238   1.395       .  A
C3237     Br3249   1.919       .  S
C3238      H3241   1.084       .  S
C3240      C3242   1.401       .  A
C3240      C3246   1.405       .  A
C3242      C3243   1.401       .  A
C3242      H3247   1.083       .  S
C3243      C3244   1.412       .  A
C3243     Br3251   1.918       .  S
C3244      C3245   1.405       .  A
C3245      C3246   1.395       .  A
C3245      H3248   1.083       .  S
C3246     Br3252   1.919       .  S
C3253      C3254   1.410       .  A
C3253      C3258   1.403       .  A
C3254      C3255   1.403       .  A
C3254     Br3270   1.918       .  S
C3255      C3256   1.404       .  A
C3255      H3259   1.083       .  S
C3256      C3257   1.409       .  A
C3256      C3260   1.483       .  S
C3257      C3258   1.399       .  A
C3257     Br3269   1.920       .  S
C3258      H3261   1.083       .  S
C3260      C3262   1.403       .  A
C3260      C3266   1.409       .  A
C3262      C3263   1.399       .  A
C3262      H3267   1.083       .  S
C3263      C3264   1.412       .  A
C3263     Br3271   1.920       .  S
C3264      C3265   1.405       .  A
C3265      C3266   1.402       .  A
C3265      H3268   1.083       .  S
C3266     Br3272   1.918       .  S
C3273      C3274   1.412       .  A
C3273      C3278   1.404       .  A
C3274      C3275   1.398       .  A
C3274     Br3290   1.920       .  S
C3275      C3276   1.402       .  A
C3275      H3279   1.084       .  S
C3276      C3277   1.407       .  A
C3276      C3280   1.480       .  S
C3277      C3278   1.400       .  A
C3277     Br3289   1.918       .  S
C3278      H3281   1.083       .  S
C3280      C3282   1.403       .  A
C3280      C3286   1.407       .  A
C3282      C3283   1.401       .  A
C3282      H3287   1.083       .  S
C3283      C3284   1.411       .  A
C3283     Br3291   1.919       .  S
C3284      C3285   1.404       .  A
C3285      C3286   1.398       .  A
C3285      H3288   1.083       .  S
C3286     Br3292   1.919       .  S
C3293      C3294   1.413       .  A
C3293      C3298   1.406       .  A
C3294      C3295   1.398       .  A
C3294     Br3310   1.920       .  S
C3295      C3296   1.401       .  A
C3295      H3299   1.084       .  S
C3296      C3297   1.406       .  A
C3296      C3300   1.478       .  S
C3297      C3298   1.400       .  A
C3297     Br3309   1.918       .  S
C3298      H3301   1.083       .  S
C3300      C3302   1.401       .  A
C3300      C3306   1.408       .  A
C3302      C3303   1.397       .  A
C3302      H3307   1.084       .  S
C3303      C3304   1.412       .  A
C3303     Br3311   1.920       .  S
C3304      C3305   1.404       .  A
C3305      C3306   1.400       .  A
C3305      H3308   1.083       .  S
C3306     Br3312   1.918       .  S
C3313      C3314   1.411       .  A
C3313      C3318   1.405       .  A
C3314      C3315   1.405       .  A
C3314     Br3330   1.918       .  S
C3315      C3316   1.404       .  A
C3315      H3319   1.083       .  S
C3316      C3317   1.404       .  A
C3316      C3320   1.476       .  S
C3317      C3318   1.394       .  A
C3317     Br3329   1.920       .  S
C3318      H3321   1.083       .  S
C3320      C3322   1.401       .  A
C3320      C3326   1.405       .  A
C3322      C3323   1.401       .  A
C3322      H3327   1.083       .  S
C3323      C3324   1.413       .  A
C3323     Br3331   1.918       .  S
C3324      C3325   1.406       .  A
C3325      C3326   1.398       .  A
C3325      H3328   1.083       .  S
C3326     Br3332   1.919       .  S
C3333      C3334   1.412       .  A
C3333      C3338   1.405       .  A
C3334      C3335   1.400       .  A
C3334     Br3350   1.920       .  S
C3335      C3336   1.403       .  A
C3335      H3339   1.084       .  S
C3336      C3337   1.411       .  A
C3336      C3340   1.487       .  S
C3337      C3338   1.403       .  A
C3337     Br3349   1.918       .  S
C3338      H3341   1.083       .  S
C3340      C3342   1.404       .  A
C3340      C3346   1.410       .  A
C3342      C3343   1.402       .  A
C3342      H3347   1.083       .  S
C3343      C3344   1.412       .  A
C3343     Br3351   1.919       .  S
C3344      C3345   1.403       .  A
C3345      C3346   1.400       .  A
C3345      H3348   1.083       .  S
C3346     Br3352   1.919       .  S
C3353      C3354   1.412       .  A
C3353      C3358   1.403       .  A
C3354      C3355   1.399       .  A
C3354     Br3370   1.920       .  S
C3355      C3356   1.401       .  A
C3355      H3359   1.084       .  S
C3356      C3357   1.407       .  A
C3356      C3360   1.476       .  S
C3357      C3358   1.398       .  A
C3357     Br3369   1.918       .  S
C3358      H3361   1.083       .  S
C3360      C3362   1.403       .  A
C3360      C3366   1.406       .  A
C3362      C3363   1.402       .  A
C3362      H3367   1.083       .  S
C3363      C3364   1.409       .  A
C3363     Br3371   1.918       .  S
C3364      C3365   1.404       .  A
C3365      C3366   1.395       .  A
C3365      H3368   1.083       .  S
C3366     Br3372   1.920       .  S
C3373      C3374   1.411       .  A
C3373      C3378   1.403       .  A
C3374      C3375   1.396       .  A
C3374     Br3390   1.920       .  S
C3375      C3376   1.401       .  A
C3375      H3379   1.083       .  S
C3376      C3377   1.407       .  A
C3376      C3380   1.476       .  S
C3377      C3378   1.400       .  A
C3377     Br3389   1.917       .  S
C3378      H3381   1.083       .  S
C3380      C3382   1.402       .  A
C3380      C3386   1.406       .  A
C3382      C3383   1.400       .  A
C3382      H3387   1.083       .  S
C3383      C3384   1.413       .  A
C3383     Br3391   1.919       .  S
C3384      C3385   1.404       .  A
C3385      C3386   1.396       .  A
C3385      H3388   1.083       .  S
C3386     Br3392   1.919       .  S
C3393      C3394   1.414       .  A
C3393      C3398   1.407       .  A
C3394      C3395   1.401       .  A
C3394     Br3410   1.920       .  S
C3395      C3396   1.401       .  A
C3395      H3399   1.084       .  S
C3396      C3397   1.405       .  A
C3396      C3400   1.476       .  S
C3397      C3398   1.398       .  A
C3397     Br3409   1.919       .  S
C3398      H3401   1.083       .  S
C3400      C3402   1.401       .  A
C3400      C3406   1.406       .  A
C3402      C3403   1.399       .  A
C3402      H3407   1.084       .  S
C3403      C3404   1.412       .  A
C3403     Br3411   1.920       .  S
C3404      C3405   1.406       .  A
C3405      C3406   1.400       .  A
C3405      H3408   1.084       .  S
C3406     Br3412   1.918       .  S
C3413      C3414   1.418       .  A
C3413      C3418   1.406       .  A
C3414      C3415   1.400       .  A
C3414     Br3430   1.922       .  S
C3415      C3416   1.399       .  A
C3415      H3419   1.084       .  S
C3416      C3417   1.407       .  A
C3416      C3420   1.479       .  S
C3417      C3418   1.400       .  A
C3417     Br3429   1.918       .  S
C3418      H3421   1.083       .  S
C3420      C3422   1.400       .  A
C3420      C3426   1.407       .  A
C3422      C3423   1.400       .  A
C3422      H3427   1.084       .  S
C3423      C3424   1.415       .  A
C3423     Br3431   1.920       .  S
C3424      C3425   1.406       .  A
C3425      C3426   1.400       .  A
C3425      H3428   1.083       .  S
C3426     Br3432   1.918       .  S
C3433      C3434   1.418       .  A
C3433      C3438   1.409       .  A
C3434      C3435   1.403       .  A
C3434     Br3450   1.921       .  S
C3435      C3436   1.404       .  A
C3435      H3439   1.084       .  S
C3436      C3437   1.408       .  A
C3436      C3440   1.489       .  S
C3437      C3438   1.400       .  A
C3437     Br3449   1.920       .  S
C3438      H3441   1.083       .  S
C3440      C3442   1.404       .  A
C3440      C3446   1.410       .  A
C3442      C3443   1.402       .  A
C3442      H3447   1.083       .  S
C3443      C3444   1.414       .  A
C3443     Br3451   1.920       .  S
C3444      C3445   1.407       .  A
C3445      C3446   1.402       .  A
C3445      H3448   1.083       .  S
C3446     Br3452   1.919       .  S
C3453      C3454   1.410       .  A
C3453      C3458   1.405       .  A
C3454      C3455   1.403       .  A
C3454     Br3470   1.918       .  S
C3455      C3456   1.404       .  A
C3455      H3459   1.083       .  S
C3456      C3457   1.405       .  A
C3456      C3460   1.477       .  S
C3457      C3458   1.396       .  A
C3457     Br3469   1.919       .  S
C3458      H3461   1.083       .  S
C3460      C3462   1.401       .  A
C3460      C3466   1.408       .  A
C3462      C3463   1.399       .  A
C3462      H3467   1.083       .  S
C3463      C3464   1.412       .  A
C3463     Br3471   1.920       .  S
C3464      C3465   1.404       .  A
C3465      C3466   1.400       .  A
C3465      H3468   1.083       .  S
C3466     Br3472   1.918       .  S
C3473      C3474   1.409       .  A
C3473      C3478   1.403       .  A
C3474      C3475   1.401       .  A
C3474     Br3490   1.918       .  S
C3475      C3476   1.403       .  A
C3475      H3479   1.083       .  S
C3476      C3477   1.407       .  A
C3476      C3480   1.475       .  S
C3477      C3478   1.395       .  A
C3477     Br3489   1.920       .  S
C3478      H3481   1.084       .  S
C3480      C3482   1.402       .  A
C3480      C3486   1.403       .  A
C3482      C3483   1.401       .  A
C3482      H3487   1.084       .  S
C3483      C3484   1.415       .  A
C3483     Br3491   1.919       .  S
C3484      C3485   1.408       .  A
C3485      C3486   1.395       .  A
C3485      H3488   1.082       .  S
C3486     Br3492   1.919       .  S
C3493      C3494   1.412       .  A
C3493      C3498   1.403   1_556  A
C3494      C3495   1.401       .  A
C3494     Br3510   1.920       .  S
C3495      C3496   1.404       .  A
C3495      H3499   1.083       .  S
C3496      C3497   1.411   1_556  A
C3496      C3500   1.488       .  S
C3497      C3498   1.401       .  A
C3497     Br3509   1.919       .  S
C3498      H3501   1.083       .  S
C3500      C3502   1.402   1_556  A
C3500      C3506   1.410       .  A
C3502      C3503   1.400       .  A
C3502      H3507   1.084       .  S
C3503      C3504   1.416   1_554  A
C3503     Br3511   1.921       .  S
C3504      C3505   1.407       .  A
C3505      C3506   1.403       .  A
C3505      H3508   1.083       .  S
C3506     Br3512   1.919       .  S
C3513      C3514   1.411       .  A
C3513      C3518   1.405       .  A
C3514      C3515   1.404       .  A
C3514     Br3530   1.918       .  S
C3515      C3516   1.404       .  A
C3515      H3519   1.083       .  S
C3516      C3517   1.406       .  A
C3516      C3520   1.479       .  S
C3517      C3518   1.397       .  A
C3517     Br3529   1.919       .  S
C3518      H3521   1.083       .  S
C3520      C3522   1.400       .  A
C3520      C3526   1.406       .  A
C3522      C3523   1.400       .  A
C3522      H3527   1.084       .  S
C3523      C3524   1.417       .  A
C3523     Br3531   1.920       .  S
C3524      C3525   1.407       .  A
C3525      C3526   1.401       .  A
C3525      H3528   1.083       .  S
C3526     Br3532   1.918       .  S
C3533      C3534   1.415       .  A
C3533      C3538   1.408       .  A
C3534      C3535   1.405       .  A
C3534     Br3550   1.920       .  S
C3535      C3536   1.405       .  A
C3535      H3539   1.078       .  S
C3536      C3537   1.409       .  A
C3536      C3540   1.491       .  S
C3537      C3538   1.402       .  A
C3537     Br3549   1.919       .  S
C3538      H3541   1.075       .  S
C3540      C3542   1.404       .  A
C3540      C3546   1.408       .  A
C3542      C3543   1.404       .  A
C3542      H3547   1.080       .  S
C3543      C3544   1.419       .  A
C3543     Br3551   1.922       .  S
C3544      C3545   1.409       .  A
C3545      C3546   1.403       .  A
C3545      H3548   1.080       .  S
C3546     Br3552   1.919       .  S
C3553      C3554   1.416       .  A
C3553      C3558   1.407       .  A
C3554      C3555   1.403       .  A
C3554     Br3570   1.920       .  S
C3555      C3556   1.405       .  A
C3555      H3559   1.083       .  S
C3556      C3557   1.413       .  A
C3556      C3560   1.497       .  S
C3557      C3558   1.404       .  A
C3557     Br3569   1.920       .  S
C3558      H3561   1.083       .  S
C3560      C3562   1.406       .  A
C3560      C3566   1.415       .  A
C3562      C3563   1.403       .  A
C3562      H3567   1.083       .  S
C3563      C3564   1.412       .  A
C3563     Br3571   1.920       .  S
C3564      C3565   1.404       .  A
C3565      C3566   1.404       .  A
C3565      H3568   1.083       .  S
C3566     Br3572   1.920       .  S
C3573      C3574   1.413       .  A
C3573      C3578   1.407       .  A
C3574      C3575   1.403       .  A
C3574     Br3590   1.918       .  S
C3575      C3576   1.403       .  A
C3575      H3579   1.084       .  S
C3576      C3577   1.407       .  A
C3576      C3580   1.482       .  S
C3577      C3578   1.399       .  A
C3577     Br3589   1.919       .  S
C3578      H3581   1.083       .  S
C3580      C3582   1.403       .  A
C3580      C3586   1.409       .  A
C3582      C3583   1.402       .  A
C3582      H3587   1.083       .  S
C3583      C3584   1.411       .  A
C3583     Br3591   1.919       .  S
C3584      C3585   1.403       .  A
C3585      C3586   1.398       .  A
C3585      H3588   1.083       .  S
C3586     Br3592   1.919       .  S
C3593      C3594   1.407       .  A
C3593      C3598   1.403       .  A
C3594      C3595   1.402       .  A
C3594     Br3610   1.917       .  S
C3595      C3596   1.405       .  A
C3595      H3599   1.083       .  S
C3596      C3597   1.411       .  A
C3596      C3600   1.487       .  S
C3597      C3598   1.403       .  A
C3597     Br3609   1.918       .  S
C3598      H3601   1.083       .  S
C3600      C3602   1.402       .  A
C3600      C3606   1.406       .  A
C3602      C3603   1.404       .  A
C3602      H3607   1.084       .  S
C3603      C3604   1.423       .  A
C3603     Br3611   1.922       .  S
C3604      C3605   1.411       .  A
C3605      C3606   1.400       .  A
C3605      H3608   1.083       .  S
C3606     Br3612   1.919       .  S
C3613      C3614   1.411       .  A
C3613      C3618   1.405       .  A
C3614      C3615   1.403       .  A
C3614     Br3630   1.918       .  S
C3615      C3616   1.405       .  A
C3615      H3619   1.083       .  S
C3616      C3617   1.411       .  A
C3616      C3620   1.490       .  S
C3617      C3618   1.403       .  A
C3617     Br3629   1.919       .  S
C3618      H3621   1.083       .  S
C3620      C3622   1.404       .  A
C3620      C3626   1.410       .  A
C3622      C3623   1.403       .  A
C3622      H3627   1.083       .  S
C3623      C3624   1.415       .  A
C3623     Br3631   1.920       .  S
C3624      C3625   1.407       .  A
C3625      C3626   1.403       .  A
C3625      H3628   1.083       .  S
C3626     Br3632   1.919       .  S
C3633      C3634   1.417       .  A
C3633      C3638   1.408       .  A
C3634      C3635   1.404       .  A
C3634     Br3650   1.919       .  S
C3635      C3636   1.404       .  A
C3635      H3639   1.084       .  S
C3636      C3637   1.411       .  A
C3636      C3640   1.495       .  S
C3637      C3638   1.404       .  A
C3637     Br3649   1.920       .  S
C3638      H3641   1.083       .  S
C3640      C3642   1.405       .  A
C3640      C3646   1.412       .  A
C3642      C3643   1.403       .  A
C3642      H3647   1.084       .  S
C3643      C3644   1.415       .  A
C3643     Br3651   1.921       .  S
C3644      C3645   1.406       .  A
C3645      C3646   1.403       .  A
C3645      H3648   1.083       .  S
C3646     Br3652   1.919       .  S
C3653      C3654   1.415       .  A
C3653      C3658   1.406       .  A
C3654      C3655   1.400       .  A
C3654     Br3670   1.921       .  S
C3655      C3656   1.400       .  A
C3655      H3659   1.084       .  S
C3656      C3657   1.409       .  A
C3656      C3660   1.483       .  S
C3657      C3658   1.403       .  A
C3657     Br3669   1.918       .  S
C3658      H3661   1.083       .  S
C3660      C3662   1.404       .  A
C3660      C3666   1.406       .  A
C3662      C3663   1.403       .  A
C3662      H3667   1.084       .  S
C3663      C3664   1.414       .  A
C3663     Br3671   1.920       .  S
C3664      C3665   1.407       .  A
C3665      C3666   1.400       .  A
C3665      H3668   1.084       .  S
C3666     Br3672   1.918       .  S
C3673      C3674   1.413       .  A
C3673      C3678   1.405       .  A
C3674      C3675   1.398       .  A
C3674     Br3690   1.921       .  S
C3675      C3676   1.401       .  A
C3675      H3679   1.084       .  S
C3676      C3677   1.410       .  A
C3676      C3680   1.485       .  S
C3677      C3678   1.404       .  A
C3677     Br3689   1.918       .  S
C3678      H3681   1.083       .  S
C3680      C3682   1.404       .  A
C3680      C3686   1.407       .  A
C3682      C3683   1.404       .  A
C3682      H3687   1.083       .  S
C3683      C3684   1.413       .  A
C3683     Br3691   1.918       .  S
C3684      C3685   1.407       .  A
C3685      C3686   1.398       .  A
C3685      H3688   1.083       .  S
C3686     Br3692   1.919       .  S
C3693      C3694   1.422   1_556  A
C3693      C3698   1.407       .  A
C3694      C3695   1.404       .  A
C3694     Br3710   1.923       .  S
C3695      C3696   1.402   1_554  A
C3695      H3699   1.084       .  S
C3696      C3697   1.409       .  A
C3696      C3700   1.490       .  S
C3697      C3698   1.400       .  A
C3697     Br3709   1.919       .  S
C3698      H3701   1.081       .  S
C3700      C3702   1.403       .  A
C3700      C3706   1.411   1_556  A
C3702      C3703   1.401       .  A
C3702      H3707   1.084       .  S
C3703      C3704   1.412       .  A
C3703     Br3711   1.919       .  S
C3704      C3705   1.407   1_556  A
C3705      C3706   1.404       .  A
C3705      H3708   1.083       .  S
C3706     Br3712   1.919       .  S
C3713      C3714   1.414       .  A
C3713      C3718   1.408       .  A
C3714      C3715   1.405       .  A
C3714     Br3730   1.918       .  S
C3715      C3716   1.404       .  A
C3715      H3719   1.083       .  S
C3716      C3717   1.407       .  A
C3716      C3720   1.487       .  S
C3717      C3718   1.400       .  A
C3717     Br3729   1.919       .  S
C3718      H3721   1.083       .  S
C3720      C3722   1.405       .  A
C3720      C3726   1.408       .  A
C3722      C3723   1.407       .  A
C3722      H3727   1.083       .  S
C3723      C3724   1.414       .  A
C3723     Br3731   1.918       .  S
C3724      C3725   1.406       .  A
C3725      C3726   1.399       .  A
C3725      H3728   1.083       .  S
C3726     Br3732   1.920       .  S
C3733      C3734   1.413       .  A
C3733      C3738   1.404       .  A
C3734      C3735   1.401       .  A
C3734     Br3750   1.920       .  S
C3735      C3736   1.402       .  A
C3735      H3739   1.083       .  S
C3736      C3737   1.408       .  A
C3736      C3740   1.483       .  S
C3737      C3738   1.401       .  A
C3737     Br3749   1.918       .  S
C3738      H3741   1.083       .  S
C3740      C3742   1.403       .  A
C3740      C3746   1.407       .  A
C3742      C3743   1.404       .  A
C3742      H3747   1.083       .  S
C3743      C3744   1.414       .  A
C3743     Br3751   1.918       .  S
C3744      C3745   1.407       .  A
C3745      C3746   1.399       .  A
C3745      H3748   1.083       .  S
C3746     Br3752   1.920       .  S
C3753      C3754   1.414       .  A
C3753      C3758   1.404       .  A
C3754      C3755   1.402       .  A
C3754     Br3770   1.919       .  S
C3755      C3756   1.402       .  A
C3755      H3759   1.083       .  S
C3756      C3757   1.406       .  A
C3756      C3760   1.476       .  S
C3757      C3758   1.396       .  A
C3757     Br3769   1.919       .  S
C3758      H3761   1.083       .  S
C3760      C3762   1.402       .  A
C3760      C3766   1.405       .  A
C3762      C3763   1.403       .  A
C3762      H3767   1.083       .  S
C3763      C3764   1.415       .  A
C3763     Br3771   1.918       .  S
C3764      C3765   1.405       .  A
C3765      C3766   1.395       .  A
C3765      H3768   1.083       .  S
C3766     Br3772   1.920       .  S
C3773      C3774   1.416       .  A
C3773      C3778   1.406       .  A
C3774      C3775   1.406       .  A
C3774     Br3790   1.919       .  S
C3775      C3776   1.404       .  A
C3775      H3779   1.083       .  S
C3776      C3777   1.408       .  A
C3776      C3780   1.487       .  S
C3777      C3778   1.397       .  A
C3777     Br3789   1.920       .  S
C3778      H3781   1.082       .  S
C3780      C3782   1.402       .  A
C3780      C3786   1.410       .  A
C3782      C3783   1.399       .  A
C3782      H3787   1.083       .  S
C3783      C3784   1.412       .  A
C3783     Br3791   1.920       .  S
C3784      C3785   1.407       .  A
C3785      C3786   1.404       .  A
C3785      H3788   1.083       .  S
C3786     Br3792   1.918       .  S
C3793      C3794   1.414       .  A
C3793      C3798   1.405       .  A
C3794      C3795   1.399       .  A
C3794     Br3810   1.920       .  S
C3795      C3796   1.400       .  A
C3795      H3799   1.084       .  S
C3796      C3797   1.406       .  A
C3796      C3800   1.475       .  S
C3797      C3798   1.399       .  A
C3797     Br3809   1.918       .  S
C3798      H3801   1.083       .  S
C3800      C3802   1.399       .  A
C3800      C3806   1.407       .  A
C3802      C3803   1.395       .  A
C3802      H3807   1.084       .  S
C3803      C3804   1.413       .  A
C3803     Br3811   1.921       .  S
C3804      C3805   1.405       .  A
C3805      C3806   1.402       .  A
C3805      H3808   1.083       .  S
C3806     Br3812   1.917       .  S
C3813      C3814   1.413       .  A
C3813      C3818   1.408       .  A
C3814      C3815   1.401       .  A
C3814     Br3830   1.919       .  S
C3815      C3816   1.402       .  A
C3815      H3819   1.083       .  S
C3816      C3817   1.406       .  A
C3816      C3820   1.481       .  S
C3817      C3818   1.400       .  A
C3817     Br3829   1.919       .  S
C3818      H3821   1.083       .  S
C3820      C3822   1.402       .  A
C3820      C3826   1.408       .  A
C3822      C3823   1.398       .  A
C3822      H3827   1.083       .  S
C3823      C3824   1.412       .  A
C3823     Br3831   1.920       .  S
C3824      C3825   1.405       .  A
C3825      C3826   1.402       .  A
C3825      H3828   1.083       .  S
C3826     Br3832   1.918       .  S
C3833      C3834   1.415       .  A
C3833      C3838   1.405       .  A
C3834      C3835   1.401       .  A
C3834     Br3850   1.920       .  S
C3835      C3836   1.402       .  A
C3835      H3839   1.084       .  S
C3836      C3837   1.409       .  A
C3836      C3840   1.483       .  S
C3837      C3838   1.401       .  A
C3837     Br3849   1.919       .  S
C3838      H3841   1.083       .  S
C3840      C3842   1.401       .  A
C3840      C3846   1.410       .  A
C3842      C3843   1.399       .  A
C3842      H3847   1.083       .  S
C3843      C3844   1.410       .  A
C3843     Br3851   1.920       .  S
C3844      C3845   1.404       .  A
C3845      C3846   1.404       .  A
C3845      H3848   1.083       .  S
C3846     Br3852   1.918       .  S
C3853      C3854   1.410       .  A
C3853      C3858   1.404       .  A
C3854      C3855   1.403       .  A
C3854     Br3870   1.918       .  S
C3855      C3856   1.404       .  A
C3855      H3859   1.083       .  S
C3856      C3857   1.409       .  A
C3856      C3860   1.484       .  S
C3857      C3858   1.399       .  A
C3857     Br3869   1.920       .  S
C3858      H3861   1.083       .  S
C3860      C3862   1.403       .  A
C3860      C3866   1.409       .  A
C3862      C3863   1.399       .  A
C3862      H3867   1.083       .  S
C3863      C3864   1.412       .  A
C3863     Br3871   1.920       .  S
C3864      C3865   1.405       .  A
C3865      C3866   1.403       .  A
C3865      H3868   1.083       .  S
C3866     Br3872   1.918       .  S
C3873      C3874   1.411       .  A
C3873      C3878   1.405       .  A
C3874      C3875   1.397       .  A
C3874     Br3890   1.920       .  S
C3875      C3876   1.403       .  A
C3875      H3879   1.083       .  S
C3876      C3877   1.410       .  A
C3876      C3880   1.483       .  S
C3877      C3878   1.400       .  A
C3877     Br3889   1.919       .  S
C3878      H3881   1.083       .  S
C3880      C3882   1.403       .  A
C3880      C3886   1.410       .  A
C3882      C3883   1.397       .  A
C3882      H3887   1.083       .  S
C3883      C3884   1.412       .  A
C3883     Br3891   1.921       .  S
C3884      C3885   1.405       .  A
C3885      C3886   1.399       .  A
C3885      H3888   1.083       .  S
C3886     Br3892   1.919       .  S
C3893      C3894   1.409       .  A
C3893      C3898   1.404       .  A
C3894      C3895   1.399       .  A
C3894     Br3910   1.919       .  S
C3895      C3896   1.404       .  A
C3895      H3899   1.083       .  S
C3896      C3897   1.412       .  A
C3896      C3900   1.488       .  S
C3897      C3898   1.404       .  A
C3897     Br3909   1.918       .  S
C3898      H3901   1.083       .  S
C3900      C3902   1.402       .  A
C3900      C3906   1.412       .  A
C3902      C3903   1.399       .  A
C3902      H3907   1.083       .  S
C3903      C3904   1.414       .  A
C3903     Br3911   1.921       .  S
C3904      C3905   1.404       .  A
C3905      C3906   1.403       .  A
C3905      H3908   1.083       .  S
C3906     Br3912   1.919       .  S
C3913      C3914   1.417       .  A
C3913      C3918   1.408       .  A
C3914      C3915   1.401       .  A
C3914     Br3930   1.920       .  S
C3915      C3916   1.400       .  A
C3915      H3919   1.084       .  S
C3916      C3917   1.407       .  A
C3916      C3920   1.483       .  S
C3917      C3918   1.403       .  A
C3917     Br3929   1.917       .  S
C3918      H3921   1.083       .  S
C3920      C3922   1.402       .  A
C3920      C3926   1.408       .  A
C3922      C3923   1.402       .  A
C3922      H3927   1.083       .  S
C3923      C3924   1.413       .  A
C3923     Br3931   1.920       .  S
C3924      C3925   1.405       .  A
C3925      C3926   1.402       .  A
C3925      H3928   1.083       .  S
C3926     Br3932   1.918       .  S
C3933      C3934   1.411       .  A
C3933      C3938   1.405       .  A
C3934      C3935   1.399       .  A
C3934     Br3950   1.919       .  S
C3935      C3936   1.401       .  A
C3935      H3939   1.083       .  S
C3936      C3937   1.406       .  A
C3936      C3940   1.475       .  S
C3937      C3938   1.399       .  A
C3937     Br3949   1.918       .  S
C3938      H3941   1.083       .  S
C3940      C3942   1.400       .  A
C3940      C3946   1.406       .  A
C3942      C3943   1.400       .  A
C3942      H3947   1.083       .  S
C3943      C3944   1.415       .  A
C3943     Br3951   1.920       .  S
C3944      C3945   1.404       .  A
C3945      C3946   1.398       .  A
C3945      H3948   1.083       .  S
C3946     Br3952   1.919       .  S
C3953      C3954   1.410       .  A
C3953      C3958   1.404       .  A
C3954      C3955   1.398       .  A
C3954     Br3970   1.919       .  S
C3955      C3956   1.401       .  A
C3955      H3959   1.083       .  S
C3956      C3957   1.408       .  A
C3956      C3960   1.477       .  S
C3957      C3958   1.401       .  A
C3957     Br3969   1.918       .  S
C3958      H3961   1.083       .  S
C3960      C3962   1.403       .  A
C3960      C3966   1.406       .  A
C3962      C3963   1.402       .  A
C3962      H3967   1.083       .  S
C3963      C3964   1.411       .  A
C3963     Br3971   1.918       .  S
C3964      C3965   1.404       .  A
C3965      C3966   1.396       .  A
C3965      H3968   1.083       .  S
C3966     Br3972   1.919       .  S
C3973      C3974   1.412       .  A
C3973      C3978   1.403       .  A
C3974      C3975   1.400       .  A
C3974     Br3990   1.919       .  S
C3975      C3976   1.401       .  A
C3975      H3979   1.083       .  S
C3976      C3977   1.405       .  A
C3976      C3980   1.471       .  S
C3977      C3978   1.393       .  A
C3977     Br3989   1.920       .  S
C3978      H3981   1.084       .  S
C3980      C3982   1.400       .  A
C3980      C3986   1.404       .  A
C3982      C3983   1.399       .  A
C3982      H3987   1.083       .  S
C3983      C3984   1.415       .  A
C3983     Br3991   1.919       .  S
C3984      C3985   1.406       .  A
C3985      C3986   1.395       .  A
C3985      H3988   1.083       .  S
C3986     Br3992   1.920       .  S
C3993      C3994   1.411       .  A
C3993      C3998   1.406       .  A
C3994      C3995   1.403       .  A
C3994     Br4010   1.918       .  S
C3995      C3996   1.404       .  A
C3995      H3999   1.083       .  S
C3996      C3997   1.408       .  A
C3996      C4000   1.486       .  S
C3997      C3998   1.401       .  A
C3997     Br4009   1.919       .  S
C3998      H4001   1.083       .  S
C4000      C4002   1.405       .  A
C4000      C4006   1.405       .  A
C4002      C4003   1.405       .  A
C4002      H4007   1.083       .  S
C4003      C4004   1.416       .  A
C4003     Br4011   1.918       .  S
C4004      C4005   1.409       .  A
C4005      C4006   1.398       .  A
C4005      H4008   1.082       .  S
C4006     Br4012   1.919       .  S
C4013      C4014   1.410       .  A
C4013      C4018   1.403       .  A
C4014      C4015   1.397       .  A
C4014     Br4030   1.920       .  S
C4015      C4016   1.400       .  A
C4015      H4019   1.084       .  S
C4016      C4017   1.410       .  A
C4016      C4020   1.479       .  S
C4017      C4018   1.402       .  A
C4017     Br4029   1.918       .  S
C4018      H4021   1.083       .  S
C4020      C4022   1.400       .  A
C4020      C4026   1.408       .  A
C4022      C4023   1.399       .  A
C4022      H4027   1.084       .  S
C4023      C4024   1.414       .  A
C4023     Br4031   1.920       .  S
C4024      C4025   1.405       .  A
C4025      C4026   1.401       .  A
C4025      H4028   1.083       .  S
C4026     Br4032   1.919       .  S
C4033      C4034   1.414       .  A
C4033      C4038   1.407       .  A
C4034      C4035   1.403       .  A
C4034     Br4050   1.919       .  S
C4035      C4036   1.404       .  A
C4035      H4039   1.083       .  S
C4036      C4037   1.409       .  A
C4036      C4040   1.487       .  S
C4037      C4038   1.401       .  A
C4037     Br4049   1.919       .  S
C4038      H4041   1.083       .  S
C4040      C4042   1.405       .  A
C4040      C4046   1.410       .  A
C4042      C4043   1.402       .  A
C4042      H4047   1.084       .  S
C4043      C4044   1.411       .  A
C4043     Br4051   1.919       .  S
C4044      C4045   1.404       .  A
C4045      C4046   1.400       .  A
C4045      H4048   1.084       .  S
C4046     Br4052   1.919       .  S
C4053      C4054   1.410       .  A
C4053      C4058   1.405       .  A
C4054      C4055   1.401       .  A
C4054     Br4070   1.919       .  S
C4055      C4056   1.405       .  A
C4055      H4059   1.083       .  S
C4056      C4057   1.409       .  A
C4056      C4060   1.484       .  S
C4057      C4058   1.398       .  A
C4057     Br4069   1.920       .  S
C4058      H4061   1.082       .  S
C4060      C4062   1.402       .  A
C4060      C4066   1.406       .  A
C4062      C4063   1.403       .  A
C4062      H4067   1.084       .  S
C4063      C4064   1.421       .  A
C4063     Br4071   1.922       .  S
C4064      C4065   1.410       .  A
C4065      C4066   1.397       .  A
C4065      H4068   1.083       .  S
C4066     Br4072   1.920       .  S
C4073      C4074   1.411       .  A
C4073      C4078   1.405       .  A
C4074      C4075   1.403       .  A
C4074     Br4090   1.918       .  S
C4075      C4076   1.403       .  A
C4075      H4079   1.083       .  S
C4076      C4077   1.404       .  A
C4076      C4080   1.474       .  S
C4077      C4078   1.393       .  A
C4077     Br4089   1.920       .  S
C4078      H4081   1.083       .  S
C4080      C4082   1.399       .  A
C4080      C4086   1.406       .  A
C4082      C4083   1.397       .  A
C4082      H4087   1.084       .  S
C4083      C4084   1.417       .  A
C4083     Br4091   1.921       .  S
C4084      C4085   1.405       .  A
C4085      C4086   1.399       .  A
C4085      H4088   1.083       .  S
C4086     Br4092   1.918       .  S
C4093      C4094   1.414       .  A
C4093      C4098   1.405       .  A
C4094      C4095   1.394       .  A
C4094     Br4110   1.921       .  S
C4095      C4096   1.399       .  A
C4095      H4099   1.084       .  S
C4096      C4097   1.408       .  A
C4096      C4100   1.477       .  S
C4097      C4098   1.403       .  A
C4097     Br4109   1.918       .  S
C4098      H4101   1.083       .  S
C4100      C4102   1.403       .  A
C4100      C4106   1.406       .  A
C4102      C4103   1.402       .  A
C4102      H4107   1.083       .  S
C4103      C4104   1.413       .  A
C4103     Br4111   1.918       .  S
C4104      C4105   1.405       .  A
C4105      C4106   1.394       .  A
C4105      H4108   1.083       .  S
C4106     Br4112   1.920       .  S
C4113      C4114   1.413       .  A
C4113      C4118   1.405       .  A
C4114      C4115   1.402       .  A
C4114     Br4130   1.919       .  S
C4115      C4116   1.402       .  A
C4115      H4119   1.083       .  S
C4116      C4117   1.407       .  A
C4116      C4120   1.481       .  S
C4117      C4118   1.400       .  A
C4117     Br4129   1.918       .  S
C4118      H4121   1.083       .  S
C4120      C4122   1.399       .  A
C4120      C4126   1.404       .  A
C4122      C4123   1.401       .  A
C4122      H4127   1.084       .  S
C4123      C4124   1.423       .  A
C4123     Br4131   1.923       .  S
C4124      C4125   1.412       .  A
C4125      C4126   1.401       .  A
C4125      H4128   1.083       .  S
C4126     Br4132   1.918       .  S
C4133      C4134   1.419       .  A
C4133      C4138   1.409       .  A
C4134      C4135   1.397       .  A
C4134     Br4150   1.921       .  S
C4135      C4136   1.398       .  A
C4135      H4139   1.084       .  S
C4136      C4137   1.407       .  A
C4136      C4140   1.478       .  S
C4137      C4138   1.400       .  A
C4137     Br4149   1.919       .  S
C4138      H4141   1.083       .  S
C4140      C4142   1.402       .  A
C4140      C4146   1.407       .  A
C4142      C4143   1.399       .  A
C4142      H4147   1.084       .  S
C4143      C4144   1.412       .  A
C4143     Br4151   1.919       .  S
C4144      C4145   1.405       .  A
C4145      C4146   1.399       .  A
C4145      H4148   1.083       .  S
C4146     Br4152   1.919       .  S
C4153      C4154   1.413       .  A
C4153      C4158   1.405       .  A
C4154      C4155   1.396       .  A
C4154     Br4170   1.921       .  S
C4155      C4156   1.400       .  A
C4155      H4159   1.084       .  S
C4156      C4157   1.408       .  A
C4156      C4160   1.476       .  S
C4157      C4158   1.400       .  A
C4157     Br4169   1.919       .  S
C4158      H4161   1.083       .  S
C4160      C4162   1.400       .  A
C4160      C4166   1.410       .  A
C4162      C4163   1.392       .  A
C4162      H4167   1.084       .  S
C4163      C4164   1.409       .  A
C4163     Br4171   1.921       .  S
C4164      C4165   1.402       .  A
C4165      C4166   1.402       .  A
C4165      H4168   1.083       .  S
C4166     Br4172   1.918       .  S
C4173      C4174   1.411       .  A
C4173      C4178   1.404       .  A
C4174      C4175   1.403       .  A
C4174     Br4190   1.918       .  S
C4175      C4176   1.404       .  A
C4175      H4179   1.083       .  S
C4176      C4177   1.407       .  A
C4176      C4180   1.479       .  S
C4177      C4178   1.396       .  A
C4177     Br4189   1.920       .  S
C4178      H4181   1.084       .  S
C4180      C4182   1.403       .  A
C4180      C4186   1.405       .  A
C4182      C4183   1.402       .  A
C4182      H4187   1.083       .  S
C4183      C4184   1.413       .  A
C4183     Br4191   1.918       .  S
C4184      C4185   1.408       .  A
C4185      C4186   1.397       .  A
C4185      H4188   1.083       .  S
C4186     Br4192   1.920       .  S
C4193      C4194   1.409       .  A
C4193      C4198   1.404       .  A
C4194      C4195   1.398       .  A
C4194     Br4210   1.918       .  S
C4195      C4196   1.404       .  A
C4195      H4199   1.084       .  S
C4196      C4197   1.408       .  A
C4196      C4200   1.479       .  S
C4197      C4198   1.398       .  A
C4197     Br4209   1.919       .  S
C4198      H4201   1.084       .  S
C4200      C4202   1.402       .  A
C4200      C4206   1.407       .  A
C4202      C4203   1.401       .  A
C4202      H4207   1.084       .  S
C4203      C4204   1.415       .  A
C4203     Br4211   1.921       .  S
C4204      C4205   1.405       .  A
C4205      C4206   1.396       .  A
C4205      H4208   1.083       .  S
C4206     Br4212   1.919   1_545  S
C4213      C4214   1.412       .  A
C4213      C4218   1.404       .  A
C4214      C4215   1.401       .  A
C4214     Br4230   1.920       .  S
C4215      C4216   1.403       .  A
C4215      H4219   1.083       .  S
C4216      C4217   1.409       .  A
C4216      C4220   1.484       .  S
C4217      C4218   1.400       .  A
C4217     Br4229   1.918       .  S
C4218      H4221   1.083       .  S
C4220      C4222   1.402       .  A
C4220      C4226   1.407       .  A
C4222      C4223   1.401       .  A
C4222      H4227   1.084       .  S
C4223      C4224   1.418       .  A
C4223     Br4231   1.921       .  S
C4224      C4225   1.408       .  A
C4225      C4226   1.401       .  A
C4225      H4228   1.083       .  S
C4226     Br4232   1.919       .  S
C4233      C4234   1.411       .  A
C4233      C4238   1.402       .  A
C4234      C4235   1.402       .  A
C4234     Br4250   1.918       .  S
C4235      C4236   1.402       .  A
C4235      H4239   1.083       .  S
C4236      C4237   1.407       .  A
C4236      C4240   1.476       .  S
C4237      C4238   1.397       .  A
C4237     Br4249   1.919       .  S
C4238      H4241   1.083       .  S
C4240      C4242   1.400       .  A
C4240      C4246   1.407       .  A
C4242      C4243   1.397       .  A
C4242      H4247   1.083       .  S
C4243      C4244   1.413       .  A
C4243     Br4251   1.920       .  S
C4244      C4245   1.405       .  A
C4245      C4246   1.402       .  A
C4245      H4248   1.083       .  S
C4246     Br4252   1.918       .  S
C4253      C4254   1.408       .  A
C4253      C4258   1.402       .  A
C4254      C4255   1.397       .  A
C4254     Br4270   1.919       .  S
C4255      C4256   1.402       .  A
C4255      H4259   1.083       .  S
C4256      C4257   1.409       .  A
C4256      C4260   1.476       .  S
C4257      C4258   1.398       .  A
C4257     Br4269   1.919       .  S
C4258      H4261   1.084       .  S
C4260      C4262   1.401       .  A
C4260      C4266   1.407       .  A
C4262      C4263   1.399       .  A
C4262      H4267   1.083       .  S
C4263      C4264   1.415       .  A
C4263     Br4271   1.920       .  S
C4264      C4265   1.405       .  A
C4265      C4266   1.396       .  A
C4265      H4268   1.083       .  S
C4266     Br4272   1.920       .  S
C4273      C4274   1.413       .  A
C4273      C4278   1.405       .  A
C4274      C4275   1.399       .  A
C4274     Br4290   1.920       .  S
C4275      C4276   1.401       .  A
C4275      H4279   1.084       .  S
C4276      C4277   1.407       .  A
C4276      C4280   1.477       .  S
C4277      C4278   1.400       .  A
C4277     Br4289   1.918       .  S
C4278      H4281   1.083       .  S
C4280      C4282   1.398       .  A
C4280      C4286   1.403       .  A
C4282      C4283   1.399       .  A
C4282      H4287   1.084       .  S
C4283      C4284   1.422       .  A
C4283     Br4291   1.923       .  S
C4284      C4285   1.413       .  A
C4285      C4286   1.400       .  A
C4285      H4288   1.083       .  S
C4286     Br4292   1.919   1_545  S
C4293      C4294   1.411       .  A
C4293      C4298   1.404       .  A
C4294      C4295   1.404       .  A
C4294     Br4310   1.918       .  S
C4295      C4296   1.404       .  A
C4295      H4299   1.083       .  S
C4296      C4297   1.405       .  A
C4296      C4300   1.476       .  S
C4297      C4298   1.395       .  A
C4297     Br4309   1.919       .  S
C4298      H4301   1.083       .  S
C4300      C4302   1.400       .  A
C4300      C4306   1.407       .  A
C4302      C4303   1.399       .  A
C4302      H4307   1.083       .  S
C4303      C4304   1.413       .  A
C4303     Br4311   1.920       .  S
C4304      C4305   1.404       .  A
C4305      C4306   1.400       .  A
C4305      H4308   1.083       .  S
C4306     Br4312   1.918       .  S
C4313      C4314   1.417       .  A
C4313      C4318   1.408       .  A
C4314      C4315   1.402       .  A
C4314     Br4330   1.921       .  S
C4315      C4316   1.401       .  A
C4315      H4319   1.084       .  S
C4316      C4317   1.405       .  A
C4316      C4320   1.480       .  S
C4317      C4318   1.400       .  A
C4317     Br4329   1.919       .  S
C4318      H4321   1.083       .  S
C4320      C4322   1.402       .  A
C4320      C4326   1.407       .  A
C4322      C4323   1.400   1_565  A
C4322      H4327   1.084       .  S
C4323      C4324   1.412   1_545  A
C4323     Br4331   1.920       .  S
C4324      C4325   1.405       .  A
C4325      C4326   1.400       .  A
C4325      H4328   1.084       .  S
C4326     Br4332   1.918       .  S
C4333      C4334   1.413       .  A
C4333      C4338   1.405       .  A
C4334      C4335   1.404       .  A
C4334     Br4350   1.920       .  S
C4335      C4336   1.405       .  A
C4335      H4339   1.083       .  S
C4336      C4337   1.410       .  A
C4336      C4340   1.489       .  S
C4337      C4338   1.401       .  A
C4337     Br4349   1.919       .  S
C4338      H4341   1.084       .  S
C4340      C4342   1.404       .  A
C4340      C4346   1.410       .  A
C4342      C4343   1.402       .  A
C4342      H4347   1.083       .  S
C4343      C4344   1.412       .  A
C4343     Br4351   1.919       .  S
C4344      C4345   1.405       .  A
C4345      C4346   1.403       .  A
C4345      H4348   1.083       .  S
C4346     Br4352   1.919       .  S
C4353      C4354   1.414       .  A
C4353      C4358   1.405       .  A
C4354      C4355   1.396       .  A
C4354     Br4370   1.921       .  S
C4355      C4356   1.399       .  A
C4355      H4359   1.084       .  S
C4356      C4357   1.407       .  A
C4356      C4360   1.476       .  S
C4357      C4358   1.402       .  A
C4357     Br4369   1.917       .  S
C4358      H4361   1.083       .  S
C4360      C4362   1.404       .  A
C4360      C4366   1.403       .  A
C4362      C4363   1.403       .  A
C4362      H4367   1.084       .  S
C4363      C4364   1.411       .  A
C4363     Br4371   1.918       .  S
C4364      C4365   1.407       .  A
C4365      C4366   1.395       .  A
C4365      H4368   1.083       .  S
C4366     Br4372   1.918       .  S
C4373      C4374   1.416       .  A
C4373      C4378   1.408       .  A
C4374      C4375   1.401       .  A
C4374     Br4390   1.920       .  S
C4375      C4376   1.402       .  A
C4375      H4379   1.084       .  S
C4376      C4377   1.407       .  A
C4376      C4380   1.483       .  S
C4377      C4378   1.400       .  A
C4377     Br4389   1.919       .  S
C4378      H4381   1.083       .  S
C4380      C4382   1.402       .  A
C4380      C4386   1.407       .  A
C4382      C4383   1.401       .  A
C4382      H4387   1.084       .  S
C4383      C4384   1.417   1_565  A
C4383     Br4391   1.922   1_565  S
C4384      C4385   1.407   1_545  A
C4385      C4386   1.400       .  A
C4385      H4388   1.083   1_565  S
C4386     Br4392   1.918       .  S
C4393      C4394   1.419       .  A
C4393      C4398   1.410       .  A
C4394      C4395   1.403       .  A
C4394     Br4410   1.921       .  S
C4395      C4396   1.402       .  A
C4395      H4399   1.084       .  S
C4396      C4397   1.406       .  A
C4396      C4400   1.485       .  S
C4397      C4398   1.399       .  A
C4397     Br4409   1.919       .  S
C4398      H4401   1.083       .  S
C4400      C4402   1.404       .  A
C4400      C4406   1.409       .  A
C4402      C4403   1.402       .  A
C4402      H4407   1.084       .  S
C4403      C4404   1.412       .  A
C4403     Br4411   1.919       .  S
C4404      C4405   1.405       .  A
C4405      C4406   1.401       .  A
C4405      H4408   1.084       .  S
C4406     Br4412   1.919       .  S
C4413      C4414   1.420       .  A
C4413      C4418   1.410       .  A
C4414      C4415   1.400       .  A
C4414     Br4430   1.922       .  S
C4415      C4416   1.399       .  A
C4415      H4419   1.084       .  S
C4416      C4417   1.404       .  A
C4416      C4420   1.477       .  S
C4417      C4418   1.400       .  A
C4417     Br4429   1.918       .  S
C4418      H4421   1.083       .  S
C4420      C4422   1.400       .  A
C4420      C4426   1.405       .  A
C4422      C4423   1.400       .  A
C4422      H4427   1.083       .  S
C4423      C4424   1.414       .  A
C4423     Br4431   1.919       .  S
C4424      C4425   1.407       .  A
C4425      C4426   1.400       .  A
C4425      H4428   1.083       .  S
C4426     Br4432   1.918       .  S
C4433      C4434   1.411       .  A
C4433      C4438   1.405       .  A
C4434      C4435   1.403       .  A
C4434     Br4450   1.918       .  S
C4435      C4436   1.403       .  A
C4435      H4439   1.083       .  S
C4436      C4437   1.405       .  A
C4436      C4440   1.477       .  S
C4437      C4438   1.397       .  A
C4437     Br4449   1.919       .  S
C4438      H4441   1.083       .  S
C4440      C4442   1.400       .  A
C4440      C4446   1.409       .  A
C4442      C4443   1.400       .  A
C4442      H4447   1.083       .  S
C4443      C4444   1.411       .  A
C4443     Br4451   1.919       .  S
C4444      C4445   1.403       .  A
C4445      C4446   1.400       .  A
C4445      H4448   1.083       .  S
C4446     Br4452   1.919       .  S
C4453      C4454   1.412       .  A
C4453      C4458   1.407       .  A
C4454      C4455   1.401       .  A
C4454     Br4470   1.918       .  S
C4455      C4456   1.402       .  A
C4455      H4459   1.084       .  S
C4456      C4457   1.404       .  A
C4456      C4460   1.475       .  S
C4457      C4458   1.398       .  A
C4457     Br4469   1.918       .  S
C4458      H4461   1.083       .  S
C4460      C4462   1.398       .  A
C4460      C4466   1.407       .  A
C4462      C4463   1.396       .  A
C4462      H4467   1.084       .  S
C4463      C4464   1.413       .  A
C4463     Br4471   1.921       .  S
C4464      C4465   1.405       .  A
C4465      C4466   1.402       .  A
C4465      H4468   1.083       .  S
C4466     Br4472   1.917       .  S
C4473      C4474   1.412       .  A
C4473      C4478   1.404       .  A
C4474      C4475   1.400       .  A
C4474     Br4490   1.919       .  S
C4475      C4476   1.401       .  A
C4475      H4479   1.083       .  S
C4476      C4477   1.405       .  A
C4476      C4480   1.471       .  S
C4477      C4478   1.395       .  A
C4477     Br4489   1.919       .  S
C4478      H4481   1.084       .  S
C4480      C4482   1.400       .  A
C4480      C4486   1.404       .  A
C4482      C4483   1.401       .  A
C4482      H4487   1.083       .  S
C4483      C4484   1.414       .  A
C4483     Br4491   1.919       .  S
C4484      C4485   1.405       .  A
C4485      C4486   1.394       .  A
C4485      H4488   1.083       .  S
C4486     Br4492   1.920       .  S
C4493      C4494   1.412       .  A
C4493      C4498   1.403       .  A
C4494      C4495   1.399       .  A
C4494     Br4510   1.920       .  S
C4495      C4496   1.400       .  A
C4495      H4499   1.083       .  S
C4496      C4497   1.409       .  A
C4496      C4500   1.478       .  S
C4497      C4498   1.400       .  A
C4497     Br4509   1.919       .  S
C4498      H4501   1.083       .  S
C4500      C4502   1.404       .  A
C4500      C4506   1.405       .  A
C4502      C4503   1.402       .  A
C4502      H4507   1.083       .  S
C4503      C4504   1.410       .  A
C4503     Br4511   1.918       .  S
C4504      C4505   1.405       .  A
C4505      C4506   1.397       .  A
C4505      H4508   1.083       .  S
C4506     Br4512   1.919       .  S
C4513      C4514   1.412       .  A
C4513      C4518   1.402       .  A
C4514      C4515   1.396       .  A
C4514     Br4530   1.920       .  S
C4515      C4516   1.399       .  A
C4515      H4519   1.084       .  S
C4516      C4517   1.407       .  A
C4516      C4520   1.471       .  S
C4517      C4518   1.399       .  A
C4517     Br4529   1.918       .  S
C4518      H4521   1.083       .  S
C4520      C4522   1.400       .  A
C4520      C4526   1.407       .  A
C4522      C4523   1.398       .  A
C4522      H4527   1.083       .  S
C4523      C4524   1.410       .  A
C4523     Br4531   1.919       .  S
C4524      C4525   1.401       .  A
C4525      C4526   1.396       .  A
C4525      H4528   1.083       .  S
C4526     Br4532   1.920       .  S
C4533      C4534   1.418       .  A
C4533      C4538   1.410       .  A
C4534      C4535   1.400       .  A
C4534     Br4550   1.918       .  S
C4535      C4536   1.399       .  A
C4535      H4539   1.084       .  S
C4536      C4537   1.404       .  A
C4536      C4540   1.474       .  S
C4537      C4538   1.396       .  A
C4537     Br4549   1.921       .  S
C4538      H4541   1.082       .  S
C4540      C4542   1.401       .  A
C4540      C4546   1.407       .  A
C4542      C4543   1.397       .  A
C4542      H4547   1.083       .  S
C4543      C4544   1.412       .  A
C4543     Br4551   1.920       .  S
C4544      C4545   1.404       .  A
C4545      C4546   1.397       .  A
C4545      H4548   1.083       .  S
C4546     Br4552   1.919       .  S
C4553      C4554   1.409       .  A
C4553      C4558   1.402       .  A
C4554      C4555   1.399       .  A
C4554     Br4570   1.918       .  S
C4555      C4556   1.401       .  A
C4555      H4559   1.084       .  S
C4556      C4557   1.407       .  A
C4556      C4560   1.472       .  S
C4557      C4558   1.396       .  A
C4557     Br4569   1.920       .  S
C4558      H4561   1.084       .  S
C4560      C4562   1.400       .  A
C4560      C4566   1.405       .  A
C4562      C4563   1.399       .  A
C4562      H4567   1.083       .  S
C4563      C4564   1.413       .  A
C4563     Br4571   1.919       .  S
C4564      C4565   1.404       .  A
C4565      C4566   1.395       .  A
C4565      H4568   1.083       .  S
C4566     Br4572   1.919       .  S
C4573      C4574   1.411       .  A
C4573      C4578   1.403       .  A
C4574      C4575   1.400       .  A
C4574     Br4590   1.919       .  S
C4575      C4576   1.403       .  A
C4575      H4579   1.083       .  S
C4576      C4577   1.410       .  A
C4576      C4580   1.483       .  S
C4577      C4578   1.402       .  A
C4577     Br4589   1.919       .  S
C4578      H4581   1.083       .  S
C4580      C4582   1.404       .  A
C4580      C4586   1.408       .  A
C4582      C4583   1.403       .  A
C4582      H4587   1.083       .  S
C4583      C4584   1.412       .  A
C4583     Br4591   1.918       .  S
C4584      C4585   1.405       .  A
C4585      C4586   1.397       .  A
C4585      H4588   1.083       .  S
C4586     Br4592   1.920       .  S
C4593      C4594   1.410       .  A
C4593      C4598   1.404       .  A
C4594      C4595   1.402       .  A
C4594     Br4610   1.918       .  S
C4595      C4596   1.403       .  A
C4595      H4599   1.083       .  S
C4596      C4597   1.407       .  A
C4596      C4600   1.477       .  S
C4597      C4598   1.397       .  A
C4597     Br4609   1.919       .  S
C4598      H4601   1.084       .  S
C4600      C4602   1.401       .  A
C4600      C4606   1.405       .  A
C4602      C4603   1.402       .  A
C4602      H4607   1.083       .  S
C4603      C4604   1.415       .  A
C4603     Br4611   1.919       .  S
C4604      C4605   1.407       .  A
C4605      C4606   1.397       .  A
C4605      H4608   1.083       .  S
C4606     Br4612   1.919       .  S
C4613      C4614   1.414       .  A
C4613      C4618   1.406       .  A
C4614      C4615   1.398       .  A
C4614     Br4630   1.920       .  S
C4615      C4616   1.401       .  A
C4615      H4619   1.084       .  S
C4616      C4617   1.409       .  A
C4616      C4620   1.483       .  S
C4617      C4618   1.401       .  A
C4617     Br4629   1.919       .  S
C4618      H4621   1.083       .  S
C4620      C4622   1.402       .  A
C4620      C4626   1.409       .  A
C4622      C4623   1.399       .  A
C4622      H4627   1.084       .  S
C4623      C4624   1.415       .  A
C4623     Br4631   1.920       .  S
C4624      C4625   1.405       .  A
C4625      C4626   1.399       .  A
C4625      H4628   1.083       .  S
C4626     Br4632   1.919       .  S
C4633      C4634   1.413       .  A
C4633      C4638   1.404       .  A
C4634      C4635   1.401       .  A
C4634     Br4650   1.919       .  S
C4635      C4636   1.402       .  A
C4635      H4639   1.083       .  S
C4636      C4637   1.406       .  A
C4636      C4640   1.475       .  S
C4637      C4638   1.396       .  A
C4637     Br4649   1.919       .  S
C4638      H4641   1.083       .  S
C4640      C4642   1.401       .  A
C4640      C4646   1.406       .  A
C4642      C4643   1.401       .  A
C4642      H4647   1.083       .  S
C4643      C4644   1.413       .  A
C4643     Br4651   1.919       .  S
C4644      C4645   1.405       .  A
C4645      C4646   1.397       .  A
C4645      H4648   1.083       .  S
C4646     Br4652   1.920       .  S
C4653      C4654   1.411       .  A
C4653      C4658   1.405       .  A
C4654      C4655   1.404       .  A
C4654     Br4670   1.918       .  S
C4655      C4656   1.404       .  A
C4655      H4659   1.083       .  S
C4656      C4657   1.406       .  A
C4656      C4660   1.479       .  S
C4657      C4658   1.397       .  A
C4657     Br4669   1.919       .  S
C4658      H4661   1.083       .  S
C4660      C4662   1.400       .  A
C4660      C4666   1.408       .  A
C4662      C4663   1.400       .  A
C4662      H4667   1.084       .  S
C4663      C4664   1.415       .  A
C4663     Br4671   1.920       .  S
C4664      C4665   1.404       .  A
C4665      C4666   1.402       .  A
C4665      H4668   1.083       .  S
C4666     Br4672   1.918       .  S
C4673      C4674   1.417       .  A
C4673      C4678   1.406       .  A
C4674      C4675   1.401       .  A
C4674     Br4690   1.921       .  S
C4675      C4676   1.401       .  A
C4675      H4679   1.084       .  S
C4676      C4677   1.409       .  A
C4676      C4680   1.487       .  S
C4677      C4678   1.404       .  A
C4677     Br4689   1.918       .  S
C4678      H4681   1.083       .  S
C4680      C4682   1.402       .  A
C4680      C4686   1.407       .  A
C4682      C4683   1.404       .  A
C4682      H4687   1.084       .  S
C4683      C4684   1.418       .  A
C4683     Br4691   1.919       .  S
C4684      C4685   1.409       .  A
C4685      C4686   1.401       .  A
C4685      H4688   1.083       .  S
C4686     Br4692   1.919       .  S
C4693      C4694   1.413       .  A
C4693      C4698   1.408       .  A
C4694      C4695   1.399       .  A
C4694     Br4710   1.919       .  S
C4695      C4696   1.403       .  A
C4695      H4699   1.084       .  S
C4696      C4697   1.405       .  A
C4696      C4700   1.478       .  S
C4697      C4698   1.397       .  A
C4697     Br4709   1.919       .  S
C4698      H4701   1.083       .  S
C4700      C4702   1.404       .  A
C4700      C4706   1.407       .  A
C4702      C4703   1.402       .  A
C4702      H4707   1.083       .  S
C4703      C4704   1.412       .  A
C4703     Br4711   1.918       .  S
C4704      C4705   1.404       .  A
C4705      C4706   1.394       .  A
C4705      H4708   1.083       .  S
C4706     Br4712   1.920       .  S
C4713      C4714   1.414       .  A
C4713      C4718   1.406       .  A
C4714      C4715   1.397       .  A
C4714     Br4730   1.921       .  S
C4715      C4716   1.399       .  A
C4715      H4719   1.084       .  S
C4716      C4717   1.408       .  A
C4716      C4720   1.477       .  S
C4717      C4718   1.401       .  A
C4717     Br4729   1.919       .  S
C4718      H4721   1.083       .  S
C4720      C4722   1.400       .  A
C4720      C4726   1.407       .  A
C4722      C4723   1.399       .  A
C4722      H4727   1.083       .  S
C4723      C4724   1.413       .  A
C4723     Br4731   1.920       .  S
C4724      C4725   1.404       .  A
C4725      C4726   1.400       .  A
C4725      H4728   1.083       .  S
C4726     Br4732   1.919       .  S
C4733      C4734   1.411       .  A
C4733      C4738   1.405       .  A
C4734      C4735   1.396       .  A
C4734     Br4750   1.921       .  S
C4735      C4736   1.401       .  A
C4735      H4739   1.083       .  S
C4736      C4737   1.408       .  A
C4736      C4740   1.478       .  S
C4737      C4738   1.402       .  A
C4737     Br4749   1.918       .  S
C4738      H4741   1.083       .  S
C4740      C4742   1.402       .  A
C4740      C4746   1.406       .  A
C4742      C4743   1.400       .  A
C4742      H4747   1.084       .  S
C4743      C4744   1.412       .  A
C4743     Br4751   1.920       .  S
C4744      C4745   1.405       .  A
C4745      C4746   1.398       .  A
C4745      H4748   1.083       .  S
C4746     Br4752   1.918       .  S
