geometry optimzed in LAMMPS
_audit_creation_date              2020-12-01 
_audit_creation_method            'lammps2cif' 
_symmetry_space_group_name_H-M    'P1' 
_symmetry_Int_Tables_number       1 
_symmetry_cell_setting            triclinic 
loop_ 
_symmetry_equiv_pos_as_xyz 
  x,y,z 
_cell_length_a                    126.67126807 
_cell_length_b                    126.64017195400355 
_cell_length_c                    126.74711339904708 
_cell_angle_alpha                 90.01825867435878 
_cell_angle_beta                  89.94363988901414 
_cell_angle_gamma                 89.96736418737565 
loop_ 
_atom_site_label 
_atom_site_type_symbol 
_atom_site_fract_x 
_atom_site_fract_y 
_atom_site_fract_z 
_atom_site_charge 
N1          N  0.80016135  0.42998640  0.85580409    -0.27000
N2          N  0.80075596  0.43997766  0.85288739    -0.34900
C3          C  0.80721787  0.44086576  0.84457335     0.01300
C4          C  0.81104068  0.43097850  0.84198926     0.07300
C5          C  0.80640652  0.42420401  0.84932594    -0.05800
H6          H  0.80907739  0.44825941  0.84072064     0.08000
H7          H  0.80732044  0.41572599  0.84978815     0.09200
Cu8        Cu  0.79289822  0.45224428  0.86006971     0.44200
Cu9        Cu  0.79036847  0.42547381  0.86841307     0.42000
Cu10       Cu  0.77588867  0.44780861  0.88166672     0.43900
N11         N  0.78481907  0.46425691  0.86742968    -0.34400
N12         N  0.77844922  0.46282248  0.87553987    -0.28700
C13         C  0.77451083  0.47226657  0.87851352    -0.04800
C14         C  0.77854005  0.47995882  0.87180820     0.07400
C15         C  0.78515013  0.47454324  0.86499436     0.01200
H16         H  0.76913191  0.47344442  0.88504384     0.08900
H17         H  0.79011449  0.47783242  0.85887908     0.08000
N18         N  0.77445269  0.43188671  0.88551162    -0.35900
N19         N  0.77947581  0.42396049  0.88086375    -0.28100
C20         C  0.77630853  0.41484868  0.88536003    -0.03300
C21         C  0.76890249  0.41710147  0.89313958     0.05300
C22         C  0.76803436  0.42800008  0.89302929     0.03400
H23         H  0.77932355  0.40715700  0.88319826     0.08500
H24         H  0.76296240  0.43278792  0.89796617     0.07300
N25         N  0.71792059  0.34951045  0.93367698    -0.27000
N26         N  0.71892018  0.34475774  0.94289267    -0.34900
C27         C  0.71197936  0.33681132  0.94353613     0.01300
C28         C  0.70619197  0.33639341  0.93429074     0.07300
C29         C  0.71019570  0.34461813  0.92817033    -0.05800
H30         H  0.71106710  0.33181235  0.95039738     0.08000
H31         H  0.70780320  0.34681056  0.92028438     0.09200
Cu32       Cu  0.72917727  0.34936237  0.95464417     0.44200
Cu33       Cu  0.72742038  0.36245569  0.92969848     0.42000
Cu34       Cu  0.74515001  0.37202105  0.95135275     0.43900
N35         N  0.73811444  0.35556672  0.96673058    -0.34400
N36         N  0.74399351  0.36410594  0.96574714    -0.28700
C37         C  0.74793175  0.36664231  0.97530784    -0.04800
C38         C  0.74439053  0.35925536  0.98263074     0.07400
C39         C  0.73811244  0.35243414  0.97683789     0.01200
H40         H  0.75271944  0.37353571  0.97687727     0.08900
H41         H  0.73329403  0.34605481  0.97982647     0.08000
N42         N  0.74443069  0.37832355  0.93613943    -0.35900
N43         N  0.73821783  0.37494464  0.92843635    -0.28100
C44         C  0.74015190  0.38073312  0.91972294    -0.03300
C45         C  0.74784448  0.38817729  0.92203363     0.05300
C46         C  0.75039152  0.38633443  0.93250461     0.03400
H47         H  0.73625725  0.37957733  0.91221862     0.08500
H48         H  0.75638926  0.39030120  0.93709801     0.07300
N49         N  0.58003284  0.21147758  0.85279563    -0.27000
N50         N  0.57004050  0.21108380  0.84985632    -0.34900
C51         C  0.56902737  0.20454758  0.84161632     0.01300
C52         C  0.57884515  0.20055594  0.83904135     0.07300
C53         C  0.58568049  0.20500481  0.84641658    -0.05800
H54         H  0.56157649  0.20266710  0.83789971     0.08000
H55         H  0.59409777  0.20369953  0.84702818     0.09200
Cu56       Cu  0.55788466  0.21919089  0.85698494     0.44200
Cu57       Cu  0.58468860  0.22128464  0.86534076     0.42000
Cu58       Cu  0.56253686  0.23758341  0.87713488     0.43900
N59         N  0.54586502  0.22770644  0.86386637    -0.34400
N60         N  0.54735100  0.23469856  0.87143432    -0.28700
C61         C  0.53792479  0.23899292  0.87401796    -0.04800
C62         C  0.53021645  0.23454487  0.86758770     0.07400
C63         C  0.53559161  0.22732708  0.86138851     0.01200
H64         H  0.53678668  0.24500695  0.87997524     0.08900
H65         H  0.53228656  0.22207929  0.85552536     0.08000
N66         N  0.57848807  0.23849903  0.88124836    -0.35900
N67         N  0.58625648  0.23258874  0.87741674    -0.28100
C68         C  0.59531666  0.23531289  0.88230425    -0.03300
C69         C  0.59319626  0.24339973  0.88936462     0.05300
C70         C  0.58246515  0.24517429  0.88848995     0.03400
H71         H  0.60293548  0.23179169  0.88070455     0.08500
H72         H  0.57783181  0.25082850  0.89291625     0.07300
N73         N  0.65682132  0.29740877  0.93251990    -0.27000
N74         N  0.65866478  0.29895155  0.94266436    -0.34900
C75         C  0.66705715  0.30527592  0.94381926     0.01300
C76         C  0.67079056  0.30793898  0.93395140     0.07300
C77         C  0.66407695  0.30288350  0.92689935    -0.05800
H78         H  0.67033776  0.30762221  0.95134264     0.08000
H79         H  0.66466920  0.30286665  0.91838503     0.09200
Cu80       Cu  0.65016501  0.29222618  0.95475946     0.44200
Cu81       Cu  0.64480487  0.28713215  0.92755770     0.42000
Cu82       Cu  0.63042229  0.27329245  0.94950429     0.43900
N83         N  0.64132996  0.28534564  0.96652192    -0.34400
N84         N  0.63394009  0.27822126  0.96478090    -0.28700
C85         C  0.62965764  0.27537853  0.97411178    -0.04800
C86         C  0.63466743  0.28103210  0.98207542     0.07400
C87         C  0.64198471  0.28726683  0.97689772     0.01200
H88         H  0.62327154  0.26978310  0.97498288     0.08900
H89         H  0.64748732  0.29275845  0.98042862     0.08000
N90         N  0.62822118  0.27053519  0.93343513    -0.35900
N91         N  0.63296125  0.27567116  0.92563750    -0.28100
C92         C  0.62898116  0.27221254  0.91639551    -0.03300
C93         C  0.62156887  0.26443810  0.91845974     0.05300
C94         C  0.62129004  0.26361098  0.92932766     0.03400
H95         H  0.63130176  0.27514882  0.90872207     0.08500
H96         H  0.61615244  0.25858678  0.93394353     0.07300
N97         N  0.85740426  0.42965494  0.79964468    -0.27000
N98         N  0.85604291  0.43977023  0.80182011    -0.34900
C99         C  0.84785620  0.44090978  0.80842176     0.01300
C100        C  0.84373037  0.43106344  0.81059113     0.07300
C101        C  0.85004797  0.42403463  0.80498605    -0.05800
H102        H  0.84504390  0.44842078  0.81137524     0.08000
H103        H  0.84915332  0.41555076  0.80456829     0.09200
Cu104      Cu  0.86490805  0.45189491  0.79559103     0.44200
Cu105      Cu  0.86898053  0.42478763  0.78881904     0.42000
Cu106      Cu  0.88334526  0.44717584  0.77538670     0.43900
N107        N  0.87355683  0.46386629  0.78879198    -0.34400
N108        N  0.88042935  0.46237047  0.78110893    -0.28700
C109        C  0.88453455  0.47181937  0.77833328    -0.04800
C110        C  0.88007857  0.47956690  0.78473524     0.07400
C111        C  0.87307338  0.47417201  0.79115117     0.01200
H112        H  0.89034389  0.47296535  0.77217816     0.08900
H113        H  0.86777186  0.47750261  0.79696128     0.08000
N114        N  0.88515151  0.43111609  0.77199151    -0.35900
N115        N  0.88044021  0.42316569  0.77692330    -0.28100
C116        C  0.88411385  0.41400437  0.77289122    -0.03300
C117        C  0.89129219  0.41628729  0.76495060     0.05300
C118        C  0.89176016  0.42719196  0.76465478     0.03400
H119        H  0.88170461  0.40624248  0.77551612     0.08500
H120        H  0.89679472  0.43195332  0.75966239     0.07300
N121        N  0.93396026  0.35735682  0.70549666    -0.27000
N122        N  0.94404222  0.35618706  0.70310105    -0.34900
C123        C  0.94498633  0.34944786  0.69499991     0.01300
C124        C  0.93503279  0.34606027  0.69213704     0.07300
C125        C  0.92817457  0.35120996  0.69898188    -0.05800
H126        H  0.95241267  0.34715813  0.69144342     0.08000
H127        H  0.91964784  0.35074529  0.69903598     0.09200
Cu128      Cu  0.95619420  0.36364879  0.71090501     0.44200
Cu129      Cu  0.92919843  0.36781065  0.71732209     0.42000
Cu130      Cu  0.95094087  0.38003671  0.73317225     0.43900
N131        N  0.96794231  0.37084066  0.71953144    -0.34400
N132        N  0.96626402  0.37678872  0.72792685    -0.28700
C133        C  0.97567662  0.38019838  0.73159926    -0.04800
C134        C  0.98359562  0.37617478  0.72512549     0.07400
C135        C  0.97832962  0.37031711  0.71758505     0.01200
H136        H  0.97664568  0.38543156  0.73827291     0.08900
H137        H  0.98180826  0.36594658  0.71111911     0.08000
N138        N  0.93477947  0.38270729  0.73542854    -0.35900
N139        N  0.92711266  0.37871628  0.72952860    -0.28100
C140        C  0.91780405  0.38269576  0.73281815    -0.03300
C141        C  0.91965276  0.38931964  0.74128713     0.05300
C142        C  0.93047825  0.38915076  0.74272012     0.03400
H143        H  0.91022916  0.38082267  0.72935741     0.08500
H144        H  0.93492967  0.39358491  0.74849818     0.07300
N145        N  0.85889972  0.20734784  0.57545539    -0.27000
N146        N  0.85609623  0.20592500  0.56551849    -0.34900
C147        C  0.84765588  0.19955214  0.56513896     0.01300
C148        C  0.84498168  0.19666590  0.57530671     0.07300
C149        C  0.85230534  0.20173612  0.58170442    -0.05800
H150        H  0.84372197  0.19717660  0.55794548     0.08000
H151        H  0.85262706  0.20160010  0.59023148     0.09200
Cu152      Cu  0.86367951  0.21270799  0.55276096     0.44200
Cu153      Cu  0.87123837  0.21757670  0.57940595     0.42000
Cu154      Cu  0.88370250  0.23208757  0.55686611     0.43900
N155        N  0.87167644  0.21991425  0.54049746    -0.34400
N156        N  0.87898527  0.22723691  0.54179007    -0.28700
C157        C  0.88253447  0.23024398  0.53219033    -0.04800
C158        C  0.87718738  0.22446488  0.52453888     0.07400
C159        C  0.87042025  0.21799674  0.53016134     0.01200
H160        H  0.88872451  0.23598088  0.53089976     0.08900
H161        H  0.86493712  0.21228883  0.52695649     0.08000
N162        N  0.88707084  0.23459727  0.57286531    -0.35900
N163        N  0.88291884  0.22918072  0.58080430    -0.28100
C164        C  0.88716621  0.23263945  0.58991330    -0.03300
C165        C  0.89424288  0.24065311  0.58766105     0.05300
C166        C  0.89393220  0.24172084  0.57679274     0.03400
H167        H  0.88512595  0.22964267  0.59764269     0.08500
H168        H  0.89849936  0.24717261  0.57206483     0.07300
N169        N  0.93337417  0.30074788  0.64905000    -0.27000
N170        N  0.94348344  0.30253574  0.65088305    -0.34900
C171        C  0.94448756  0.31081872  0.65737009     0.01300
C172        C  0.93455543  0.31452016  0.65985684     0.07300
C173        C  0.92761756  0.30788525  0.65454663    -0.05800
H174        H  0.95195180  0.31387227  0.66017641     0.08000
H175        H  0.91908955  0.30833373  0.65453271     0.09200
Cu176      Cu  0.95574635  0.29371929  0.64488154     0.44200
Cu177      Cu  0.92868062  0.28874253  0.63867994     0.42000
Cu178      Cu  0.95107957  0.27200394  0.62829423     0.43900
N179        N  0.96783563  0.28460463  0.63896489    -0.34400
N180        N  0.96635741  0.27636637  0.63277024    -0.28700
C181        C  0.97588993  0.27243499  0.62999102    -0.04800
C182        C  0.98369223  0.27858096  0.63470652     0.07400
C183        C  0.97820508  0.28618733  0.64031466     0.01200
H184        H  0.97704192  0.26589522  0.62462208     0.08900
H185        H  0.98151837  0.29255265  0.64494366     0.08000
N186        N  0.93512231  0.27039642  0.62430577    -0.35900
N187        N  0.92724885  0.27644763  0.62766234    -0.28100
C188        C  0.91827849  0.27337690  0.62281522    -0.03300
C189        C  0.92058247  0.26497772  0.61617895     0.05300
C190        C  0.93129772  0.26328379  0.61740725     0.03400
H191        H  0.91062415  0.27694945  0.62409550     0.08500
H192        H  0.93604139  0.25743867  0.61336112     0.07300
N193        N  0.57948978  0.15231013  0.79883424    -0.27000
N194        N  0.56948707  0.15355454  0.80158700    -0.34900
C195        C  0.56868900  0.16160638  0.80842054     0.01300
C196        C  0.57863782  0.16564470  0.81022801     0.07300
C197        C  0.58535471  0.15956896  0.80402757    -0.05800
H198        H  0.56132717  0.16450049  0.81165652     0.08000
H199        H  0.59377120  0.16062732  0.80304021     0.09200
Cu200      Cu  0.55692594  0.14504325  0.79554721     0.44200
Cu201      Cu  0.58411317  0.14115381  0.78746086     0.42000
Cu202      Cu  0.56152642  0.12826955  0.77386336     0.43900
N203        N  0.54482759  0.13738980  0.78769975    -0.34400
N204        N  0.54642526  0.13138984  0.77933793    -0.28700
C205        C  0.53705312  0.12782585  0.77579189    -0.04800
C206        C  0.52916607  0.13180918  0.78228422     0.07400
C207        C  0.53443861  0.13778777  0.78976638     0.01200
H208        H  0.53610273  0.12255753  0.76914385     0.08900
H209        H  0.53095450  0.14224394  0.79616987     0.08000
N210        N  0.57730452  0.12481770  0.77117832    -0.35900
N211        N  0.58546505  0.12927232  0.77595472    -0.28100
C212        C  0.59438011  0.12455648  0.77249445    -0.03300
C213        C  0.59166664  0.11668644  0.76535935     0.05300
C214        C  0.58078881  0.11719911  0.76467413     0.03400
H215        H  0.60224096  0.12650028  0.77519786     0.08500
H216        H  0.57570844  0.11235212  0.75982407     0.07300
N217        N  0.65332981  0.07326947  0.70843809    -0.27000
N218        N  0.65618173  0.06323990  0.70793555    -0.34900
C219        C  0.66426442  0.06220543  0.70118745     0.01300
C220        C  0.66680691  0.07204368  0.69723160     0.07300
C221        C  0.65960900  0.07891027  0.70188846    -0.05800
H222        H  0.66819522  0.05481051  0.69948299     0.08000
H223        H  0.65927672  0.08739330  0.70094634     0.09200
Cu224      Cu  0.64986031  0.05123821  0.71697551     0.44200
Cu225      Cu  0.64159656  0.07833030  0.71896462     0.42000
Cu226      Cu  0.63143773  0.05718355  0.73697489     0.43900
N227        N  0.64362833  0.03980291  0.72677898    -0.34400
N228        N  0.63662872  0.04185212  0.73422391    -0.28700
C229        C  0.63401845  0.03274618  0.73909585    -0.04800
C230        C  0.63974475  0.02461590  0.73447384     0.07400
C231        C  0.64577162  0.02942640  0.72674492     0.01200
H232        H  0.62852033  0.03212789  0.74560144     0.08900
H233        H  0.65126081  0.02563128  0.72140606     0.08000
N234        N  0.62723170  0.07305851  0.73760309    -0.35900
N235        N  0.63060350  0.08056817  0.73115447    -0.28100
C236        C  0.62594594  0.08974511  0.73389617    -0.03300
C237        C  0.61942084  0.08797894  0.74254068     0.05300
C238        C  0.62043717  0.07728105  0.74457910     0.03400
H239        H  0.62710422  0.09710160  0.72973259     0.08500
H240        H  0.61654273  0.07284509  0.75074914     0.07300
N241        N  0.80156793  0.15186484  0.57752189    -0.27000
N242        N  0.80194968  0.15487535  0.56754774    -0.34900
C243        C  0.80813211  0.16339792  0.56664780     0.01300
C244        C  0.81188733  0.16607024  0.57651373     0.07300
C245        C  0.80769162  0.15847979  0.58326510    -0.05800
H246        H  0.80991775  0.16727644  0.55925343     0.08000
H247        H  0.80887682  0.15791365  0.59169668     0.09200
Cu248      Cu  0.79451026  0.14734865  0.55522234     0.44200
Cu249      Cu  0.79212822  0.13902913  0.58215572     0.42000
Cu250      Cu  0.77758340  0.12581884  0.55997447     0.43900
N251        N  0.78790199  0.13867308  0.54318153    -0.34400
N252        N  0.78153777  0.13058023  0.54475960    -0.28700
C253        C  0.77895742  0.12636260  0.53532875    -0.04800
C254        C  0.78413345  0.13202801  0.52750406     0.07400
C255        C  0.78961528  0.13983331  0.53280717     0.01200
H256        H  0.77395095  0.11952788  0.53426337     0.08900
H257        H  0.79455180  0.14590768  0.52939267     0.08000
N258        N  0.77551880  0.12258815  0.57596786    -0.35900
N259        N  0.78084318  0.12695809  0.58384475    -0.28100
C260        C  0.77743395  0.12270676  0.59299419    -0.03300
C261        C  0.76949776  0.11549375  0.59079730     0.05300
C262        C  0.76856215  0.11560372  0.57992706     0.03400
H263        H  0.78036540  0.12486301  0.60071371     0.08500
H264        H  0.76328505  0.11084596  0.57519655     0.07300
N265        N  0.71145887  0.07475768  0.65302081    -0.27000
N266        N  0.71052348  0.06467007  0.65548346    -0.34900
C267        C  0.70344789  0.06352409  0.66324581     0.01300
C268        C  0.69953650  0.07333567  0.66587230     0.07300
C269        C  0.70476400  0.08035678  0.65921164    -0.05800
H270        H  0.70128820  0.05603402  0.66674101     0.08000
H271        H  0.70397365  0.08886120  0.65908807     0.09200
Cu272      Cu  0.71861022  0.05263921  0.64828862     0.44200
Cu273      Cu  0.72251938  0.07953125  0.64157576     0.42000
Cu274      Cu  0.73907690  0.05727224  0.63023475     0.43900
N275        N  0.72608695  0.04061036  0.64046563    -0.34400
N276        N  0.73398076  0.04202080  0.63382053    -0.28700
C277        C  0.73709069  0.03248500  0.63016758    -0.04800
C278        C  0.73061882  0.02483081  0.63464650     0.07400
C279        C  0.72383904  0.03031122  0.64118111     0.01200
H280        H  0.74344438  0.03122650  0.62459758     0.08900
H281        H  0.71779222  0.02703979  0.64625041     0.08000
N282        N  0.74098585  0.07335458  0.62707442    -0.35900
N283        N  0.73493700  0.08115860  0.63061364    -0.28100
C284        C  0.73818036  0.09025984  0.62611615    -0.03300
C285        C  0.74674056  0.08811736  0.61963976     0.05300
C286        C  0.74826601  0.07734587  0.62044237     0.03400
H287        H  0.73458797  0.09789221  0.62747817     0.08500
H288        H  0.75405230  0.07267619  0.61622939     0.07300
N289        N  0.21235663  0.42971363  0.85615221    -0.27000
N290        N  0.21297764  0.43927963  0.85203738    -0.34900
C291        C  0.20665474  0.43986393  0.84357773     0.01300
C292        C  0.20172401  0.43022723  0.84224156     0.07300
C293        C  0.20542690  0.42396846  0.85043612    -0.05800
H294        H  0.20540502  0.44694688  0.83897129     0.08000
H295        H  0.20323165  0.41588953  0.85212397     0.09200
Cu296      Cu  0.22142011  0.45159512  0.85861791     0.44200
Cu297      Cu  0.22129235  0.42545836  0.86931861     0.42000
Cu298      Cu  0.23738182  0.44718268  0.88115770     0.43900
N299        N  0.22837684  0.46373093  0.86702100    -0.34400
N300        N  0.23436626  0.46228425  0.87541782    -0.28700
C301        C  0.23699997  0.47180106  0.87944184    -0.04800
C302        C  0.23234344  0.47956630  0.87326059     0.07400
C303        C  0.22694504  0.47411200  0.86550227     0.01200
H304        H  0.24148153  0.47295534  0.88661009     0.08900
H305        H  0.22203914  0.47745492  0.85936734     0.08000
N306        N  0.23822908  0.43130489  0.88537887    -0.35900
N307        N  0.23230205  0.42362444  0.88144969    -0.28100
C308        C  0.23502666  0.41445686  0.88610718    -0.03300
C309        C  0.24305424  0.41646953  0.89320286     0.05300
C310        C  0.24492109  0.42718148  0.89251178     0.03400
H311        H  0.23162840  0.40684737  0.88424211     0.08500
H312        H  0.25076281  0.43165448  0.89684010     0.07300
N313        N  0.30550705  0.35825317  0.93158170    -0.27000
N314        N  0.30970470  0.35915827  0.94107784    -0.34900
C315        C  0.31851917  0.35332996  0.94158599     0.01300
C316        C  0.32007125  0.34846600  0.93195043     0.07300
C317        C  0.31157330  0.35164712  0.92579323    -0.05800
H318        H  0.32323832  0.35237646  0.94863250     0.08000
H319        H  0.30992306  0.34932066  0.91774932     0.09200
Cu320      Cu  0.30303832  0.36743058  0.95342954     0.44200
Cu321      Cu  0.29178148  0.36642091  0.92747269     0.42000
Cu322      Cu  0.27839202  0.38003746  0.94990471     0.43900
N323        N  0.29491253  0.37443585  0.96569345    -0.34400
N324        N  0.28555939  0.37889454  0.96459123    -0.28700
C325        C  0.28224213  0.38235920  0.97409584    -0.04800
C326        C  0.29000197  0.38007327  0.98147538     0.07400
C327        C  0.29784767  0.37495310  0.97584553     0.01200
H328        H  0.27479857  0.38630639  0.97551503     0.08900
H329        H  0.30506417  0.37159327  0.97893361     0.08000
N330        N  0.27428371  0.38156755  0.93410509    -0.35900
N331        N  0.27905793  0.37685243  0.92607949    -0.28100
C332        C  0.27489785  0.38052714  0.91701612    -0.03300
C333        C  0.26720133  0.38794465  0.91943939     0.05300
C334        C  0.26698546  0.38828808  0.93034351     0.03400
H335        H  0.27745564  0.37810240  0.90924172     0.08500
H336        H  0.26222216  0.39345473  0.93520677     0.07300
N337        N  0.43563453  0.21215862  0.85079574    -0.27000
N338        N  0.44552532  0.21195100  0.84749726    -0.34900
C339        C  0.44638076  0.20512772  0.83944462     0.01300
C340        C  0.43654171  0.20081845  0.83746148     0.07300
C341        C  0.42990737  0.20535914  0.84491589    -0.05800
H342        H  0.45369067  0.20334807  0.83539388     0.08000
H343        H  0.42153621  0.20396374  0.84586955     0.09200
Cu344      Cu  0.45752194  0.22086215  0.85408437     0.44200
Cu345      Cu  0.43090400  0.22217960  0.86294403     0.42000
Cu346      Cu  0.45191362  0.23927525  0.87470882     0.43900
N347        N  0.46907074  0.22959468  0.86163148    -0.34400
N348        N  0.46723280  0.23633768  0.86936971    -0.28700
C349        C  0.47654503  0.24030289  0.87272824    -0.04800
C350        C  0.48460195  0.23580494  0.86675474     0.07400
C351        C  0.47948704  0.22911021  0.85980504     0.01200
H352        H  0.47735229  0.24607198  0.87896649     0.08900
H353        H  0.48311075  0.22403679  0.85396127     0.08000
N354        N  0.43587298  0.23984912  0.87852493    -0.35900
N355        N  0.42849806  0.23356516  0.87457809    -0.28100
C356        C  0.41918607  0.23587130  0.87915849    -0.03300
C357        C  0.42073213  0.24400598  0.88626949     0.05300
C358        C  0.43137081  0.24638011  0.88560504     0.03400
H359        H  0.41180745  0.23197214  0.87735661     0.08500
H360        H  0.43557926  0.25228862  0.89010804     0.07300
N361        N  0.36059457  0.30076495  0.93015101    -0.27000
N362        N  0.36013857  0.30343776  0.94021942    -0.34900
C363        C  0.35399228  0.31199825  0.94130883     0.01300
C364        C  0.35025886  0.31483247  0.93148138     0.07300
C365        C  0.35457023  0.30753286  0.92454346    -0.05800
H366        H  0.35224839  0.31581157  0.94875075     0.08000
H367        H  0.35354141  0.30726076  0.91607595     0.09200
Cu368      Cu  0.36762109  0.29526314  0.95215775     0.44200
Cu369      Cu  0.36988062  0.28819451  0.92498108     0.42000
Cu370      Cu  0.38246199  0.27203997  0.94599094     0.43900
N371        N  0.37526136  0.28629495  0.96340658    -0.34400
N372        N  0.38059411  0.27757001  0.96133467    -0.28700
C373        C  0.38453543  0.27371102  0.97043914    -0.04800
C374        C  0.38164762  0.28047653  0.97855516     0.07400
C375        C  0.37569048  0.28827734  0.97378781     0.01200
H376        H  0.38926995  0.26662831  0.97108055     0.08900
H377        H  0.37181146  0.29486704  0.97760333     0.08000
N378        N  0.38456398  0.26978867  0.92985557    -0.35900
N379        N  0.38035075  0.27574650  0.92236814    -0.28100
C380        C  0.38437152  0.27279624  0.91298176    -0.03300
C381        C  0.39139361  0.26458275  0.91462651     0.05300
C382        C  0.39124545  0.26283492  0.92538955     0.03400
H383        H  0.38251252  0.27653828  0.90553966     0.08500
H384        H  0.39609218  0.25730097  0.92972655     0.07300
N385        N  0.15357891  0.43032752  0.80222986    -0.27000
N386        N  0.15692567  0.44020232  0.80266567    -0.34900
C387        C  0.16518251  0.44083457  0.80924207     0.01300
C388        C  0.16715693  0.43092263  0.81329058     0.07300
C389        C  0.15964527  0.42438916  0.80870101    -0.05800
H390        H  0.16955973  0.44799262  0.81084144     0.08000
H391        H  0.15891593  0.41593469  0.80967181     0.09200
Cu392      Cu  0.15053640  0.45253833  0.79417174     0.44200
Cu393      Cu  0.14141879  0.42587116  0.79196488     0.42000
Cu394      Cu  0.12998122  0.44788431  0.77584354     0.43900
N395        N  0.14350316  0.46451598  0.78567404    -0.34400
N396        N  0.13574053  0.46301278  0.77890280    -0.28700
C397        C  0.13274865  0.47247061  0.77499492    -0.04800
C398        C  0.13908241  0.48025302  0.77945037     0.07400
C399        C  0.14570328  0.47485540  0.78626219     0.01200
H400        H  0.12643328  0.47360546  0.76936833     0.08900
H401        H  0.15148543  0.47820463  0.79156672     0.08000
N402        N  0.12614612  0.43191658  0.77431167    -0.35900
N403        N  0.12997236  0.42411955  0.78015318    -0.28100
C404        C  0.12558623  0.41496590  0.77694298    -0.03300
C405        C  0.11874190  0.41707617  0.76867870     0.05300
C406        C  0.11936484  0.42788028  0.76720658     0.03400
H407        H  0.12742214  0.40730415  0.78023915     0.08500
H408        H  0.11511669  0.43250228  0.76142081     0.07300
N409        N  0.07965851  0.35715057  0.70736281    -0.27000
N410        N  0.06964544  0.35593807  0.70471238    -0.34900
C411        C  0.06881301  0.34826932  0.69747585     0.01300
C412        C  0.07876314  0.34437722  0.69537345     0.07300
C413        C  0.08552149  0.35019392  0.70175303    -0.05800
H414        H  0.06142277  0.34541315  0.69429241     0.08000
H415        H  0.09394385  0.34909342  0.70263115     0.09200
Cu416      Cu  0.05723602  0.36379663  0.71168862     0.44200
Cu417      Cu  0.08403907  0.36775579  0.71929039     0.42000
Cu418      Cu  0.06143671  0.38006795  0.73402853     0.43900
N419        N  0.04507422  0.37110334  0.71963584    -0.34400
N420        N  0.04639013  0.37709106  0.72805619    -0.28700
C421        C  0.03684330  0.38056161  0.73130942    -0.04800
C422        C  0.02922372  0.37663563  0.72446796     0.07400
C423        C  0.03477778  0.37057364  0.71727625     0.01200
H424        H  0.03555412  0.38565656  0.73804137     0.08900
H425        H  0.03157565  0.36594766  0.71085886     0.08000
N426        N  0.07741241  0.38253940  0.73723284    -0.35900
N427        N  0.08542889  0.37852708  0.73180699    -0.28100
C428        C  0.09449597  0.38257942  0.73562989    -0.03300
C429        C  0.09208727  0.38934268  0.74388280     0.05300
C430        C  0.08121276  0.38907317  0.74469990     0.03400
H431        H  0.10227288  0.38079551  0.73257415     0.08500
H432        H  0.07637580  0.39362184  0.75007883     0.07300
N433        N  0.15708705  0.20883009  0.57739429    -0.27000
N434        N  0.16022489  0.20804163  0.56747700    -0.34900
C435        C  0.16689951  0.19989053  0.56650342     0.01300
C436        C  0.16819580  0.19528751  0.57627250     0.07300
C437        C  0.16188794  0.20116558  0.58306949    -0.05800
H438        H  0.17051396  0.19743744  0.55916095     0.08000
H439        H  0.16065565  0.19978979  0.59140274     0.09200
Cu440      Cu  0.15515532  0.21757694  0.55535003     0.44200
Cu441      Cu  0.14587354  0.22012011  0.58197124     0.42000
Cu442      Cu  0.13440577  0.23571078  0.55969761     0.43900
N443        N  0.14855744  0.22630493  0.54335691    -0.34400
N444        N  0.14056482  0.23284950  0.54474490    -0.28700
C445        C  0.13771756  0.23681919  0.53529329    -0.04800
C446        C  0.14440249  0.23265593  0.52766711     0.07400
C447        C  0.15109923  0.22596464  0.53308982     0.01200
H448        H  0.13130819  0.24233135  0.53406487     0.08900
H449        H  0.15718009  0.22095030  0.52978759     0.08000
N450        N  0.13040091  0.23746312  0.57554466    -0.35900
N451        N  0.13442389  0.23200353  0.58349977    -0.28100
C452        C  0.12983293  0.23528479  0.59252873    -0.03300
C453        C  0.12263113  0.24322518  0.59018514     0.05300
C454        C  0.12321560  0.24431099  0.57932327     0.03400
H455        H  0.13142295  0.23189177  0.60019138     0.08500
H456        H  0.11871766  0.24970466  0.57446853     0.07300
N457        N  0.07964929  0.29821901  0.65298991    -0.27000
N458        N  0.06963983  0.29916672  0.65577776    -0.34900
C459        C  0.06877412  0.30638761  0.66345710     0.01300
C460        C  0.07868086  0.31034571  0.66564225     0.07300
C461        C  0.08545163  0.30501376  0.65883139    -0.05800
H462        H  0.06140937  0.30866877  0.66714503     0.08000
H463        H  0.09393490  0.30585037  0.65831852     0.09200
Cu464      Cu  0.05732110  0.29097279  0.64901961     0.44200
Cu465      Cu  0.08427965  0.28724506  0.64152542     0.42000
Cu466      Cu  0.06200486  0.27181334  0.62933811     0.43900
N467        N  0.04522710  0.28327500  0.64133448    -0.34400
N468        N  0.04672654  0.27601514  0.63400829    -0.28700
C469        C  0.03721333  0.27289980  0.63031972    -0.04800
C470        C  0.02942963  0.27865658  0.63550863     0.07400
C471        C  0.03485308  0.28505336  0.64248735     0.01200
H472        H  0.03605898  0.26718284  0.62408381     0.08900
H473        H  0.03151078  0.29071304  0.64794622     0.08000
N474        N  0.07804765  0.27010181  0.62571345    -0.35900
N475        N  0.08592388  0.27551574  0.62997230    -0.28100
C476        C  0.09504642  0.27244222  0.62541660    -0.03300
C477        C  0.09284890  0.26485739  0.61783738     0.05300
C478        C  0.08199650  0.26352024  0.61836145     0.03400
H479        H  0.10270922  0.27570406  0.62729649     0.08500
H480        H  0.07725816  0.25813505  0.61374000     0.07300
N481        N  0.30041096  0.07583707  0.65273555    -0.27000
N482        N  0.29938741  0.06632842  0.65690719    -0.34900
C483        C  0.30535234  0.06561657  0.66561157     0.01300
C484        C  0.31055606  0.07508039  0.66708816     0.07300
C485        C  0.30725564  0.08143028  0.65873999    -0.05800
H486        H  0.30602427  0.05859597  0.67042960     0.08000
H487        H  0.30954157  0.08952002  0.65723769     0.09200
Cu488      Cu  0.29065017  0.05424035  0.65039202     0.44200
Cu489      Cu  0.29194838  0.08013173  0.63909621     0.42000
Cu490      Cu  0.27787108  0.05772424  0.62593463     0.43900
N491        N  0.28394807  0.04191394  0.64215473    -0.34400
N492        N  0.27929066  0.04301484  0.63291386    -0.28700
C493        C  0.27670286  0.03338711  0.62917801    -0.04800
C494        C  0.27998278  0.02590383  0.63646632     0.07400
C495        C  0.28452608  0.03163105  0.64456297     0.01200
H496        H  0.27326216  0.03193362  0.62150646     0.08900
H497        H  0.28838269  0.02851923  0.65151344     0.08000
N498        N  0.27702399  0.07340861  0.62134526    -0.35900
N499        N  0.28189099  0.08145294  0.62591994    -0.28100
C500        C  0.27885028  0.09042158  0.62104472    -0.03300
C501        C  0.27181050  0.08790726  0.61300577     0.05300
C502        C  0.27083568  0.07703681  0.61354453     0.03400
H503        H  0.28144045  0.09823715  0.62331078     0.08500
H504        H  0.26560661  0.07209066  0.60896925     0.07300
N505        N  0.21269179  0.15158772  0.57601328    -0.27000
N506        N  0.21221969  0.15553277  0.56636479    -0.34900
C507        C  0.20415230  0.16234441  0.56574105     0.01300
C508        C  0.19924563  0.16283491  0.57544077     0.07300
C509        C  0.20490435  0.15598861  0.58186293    -0.05800
H510        H  0.20197932  0.16662801  0.55868257     0.08000
H511        H  0.20333116  0.15416602  0.59005185     0.09200
Cu512      Cu  0.22205733  0.15151185  0.55401894     0.44200
Cu513      Cu  0.22380523  0.14002459  0.58007229     0.42000
Cu514      Cu  0.23973105  0.13033106  0.55727981     0.43900
N515        N  0.23086559  0.14558831  0.54166581    -0.34400
N516        N  0.23721204  0.13738738  0.54269299    -0.28700
C517        C  0.24108864  0.13480380  0.53312787    -0.04800
C518        C  0.23695650  0.14177416  0.52575478     0.07400
C519        C  0.23057979  0.14853880  0.53149372     0.01200
H520        H  0.24645009  0.12831650  0.53165460     0.08900
H521        H  0.22574324  0.15487812  0.52842999     0.08000
N522        N  0.24134488  0.12520917  0.57278772    -0.35900
N523        N  0.23579774  0.12863998  0.58096713    -0.28100
C524        C  0.23925276  0.12368073  0.58972307    -0.03300
C525        C  0.24738539  0.11685947  0.58694191     0.05300
C526        C  0.24839765  0.11801990  0.57613241     0.03400
H527        H  0.23596472  0.12486645  0.59751086     0.08500
H528        H  0.25398928  0.11402946  0.57104951     0.07300
N529        N  0.43368967  0.15135111  0.79903027    -0.27000
N530        N  0.44369058  0.15428796  0.79924188    -0.34900
C531        C  0.44465428  0.16322475  0.80479494     0.01300
C532        C  0.43482391  0.16614957  0.80844536     0.07300
C533        C  0.42798095  0.15841537  0.80467799    -0.05800
H534        H  0.45205740  0.16723617  0.80622507     0.08000
H535        H  0.41952178  0.15805927  0.80579689     0.09200
Cu536      Cu  0.45590568  0.14607926  0.79242779     0.44200
Cu537      Cu  0.42906304  0.13801218  0.79034113     0.42000
Cu538      Cu  0.45108767  0.12469643  0.77531293     0.43900
N539        N  0.46791454  0.13730858  0.78594885    -0.34400
N540        N  0.46638707  0.12942853  0.77930476    -0.28700
C541        C  0.47587921  0.12536395  0.77660345    -0.04800
C542        C  0.48363679  0.13090044  0.78202025     0.07400
C543        C  0.47827009  0.13842783  0.78779265     0.01200
H544        H  0.47703219  0.11872144  0.77135871     0.08900
H545        H  0.48164897  0.14430434  0.79298590     0.08000
N546        N  0.43498543  0.12121633  0.77391225    -0.35900
N547        N  0.42726331  0.12554464  0.77953006    -0.28100
C548        C  0.41803022  0.12111704  0.77661611    -0.03300
C549        C  0.41997873  0.11383391  0.76869838     0.05300
C550        C  0.43079788  0.11410112  0.76720853     0.03400
H551        H  0.41040069  0.12328472  0.77979302     0.08500
H552        H  0.43531362  0.10943531  0.76165423     0.07300
N553        N  0.35429856  0.07594644  0.71221503    -0.27000
N554        N  0.35111889  0.06602673  0.71154608    -0.34900
C555        C  0.34308063  0.06530962  0.70472042     0.01300
C556        C  0.34097420  0.07521709  0.70074204     0.07300
C557        C  0.34831126  0.08182934  0.70557849    -0.05800
H558        H  0.33910130  0.05802563  0.70270312     0.08000
H559        H  0.34909999  0.09026332  0.70448842     0.09200
Cu560      Cu  0.35770353  0.05350817  0.71954590     0.44200
Cu561      Cu  0.36649102  0.08027103  0.72273205     0.42000
Cu562      Cu  0.37758808  0.05740525  0.73828980     0.43900
N563        N  0.36461157  0.04110990  0.72746104    -0.34400
N564        N  0.37215781  0.04233909  0.73451619    -0.28700
C565        C  0.37501834  0.03273488  0.73816445    -0.04800
C566        C  0.36879900  0.02516067  0.73322363     0.07400
C567        C  0.36240588  0.03081211  0.72641322     0.01200
H568        H  0.38106947  0.03137065  0.74402562     0.08900
H569        H  0.35665875  0.02767303  0.72094040     0.08000
N570        N  0.38167819  0.07324016  0.74025799    -0.35900
N571        N  0.37811746  0.08134497  0.73465779    -0.28100
C572        C  0.38303889  0.09018761  0.73803930    -0.03300
C573        C  0.38983248  0.08754997  0.74622966     0.05300
C574        C  0.38875802  0.07674689  0.74734465     0.03400
H575        H  0.38172021  0.09799180  0.73482965     0.08500
H576        H  0.39303071  0.07171535  0.75275867     0.07300
N577        N  0.79989361  0.85379463  0.57746668    -0.27000
N578        N  0.80249914  0.85330999  0.56739132    -0.34900
C579        C  0.80866434  0.84489972  0.56569819     0.01300
C580        C  0.81017950  0.83973208  0.57515099     0.07300
C581        C  0.80453013  0.84560967  0.58253446    -0.05800
H582        H  0.81164807  0.84256937  0.55803980     0.08000
H583        H  0.80350698  0.84382430  0.59081759     0.09200
Cu584      Cu  0.79692839  0.86327954  0.55593605     0.44200
Cu585      Cu  0.78934918  0.86540126  0.58276536     0.42000
Cu586      Cu  0.77578249  0.88048494  0.56076230     0.43900
N587        N  0.78966512  0.87148361  0.54404375    -0.34400
N588        N  0.78136006  0.87761427  0.54547213    -0.28700
C589        C  0.77814696  0.88121095  0.53595471    -0.04800
C590        C  0.78495657  0.87722491  0.52830566     0.07400
C591        C  0.79207033  0.87105363  0.53376331     0.01200
H592        H  0.77147538  0.88639563  0.53470226     0.08900
H593        H  0.79840690  0.86635755  0.53046946     0.08000
N594        N  0.77361973  0.88287817  0.57699366    -0.35900
N595        N  0.77844047  0.87772647  0.58472645    -0.28100
C596        C  0.77533964  0.88187321  0.59403066    -0.03300
C597        C  0.76834006  0.89008199  0.59212756     0.05300
C598        C  0.76738074  0.89037072  0.58123064     0.03400
H599        H  0.77815920  0.87923702  0.60164177     0.08500
H600        H  0.76246567  0.89562802  0.57664640     0.07300
N601        N  0.71369357  0.92961828  0.65904187    -0.27000
N602        N  0.71241433  0.93970531  0.66145658    -0.34900
C603        C  0.70613362  0.94053768  0.66993244     0.01300
C604        C  0.70311704  0.93055031  0.67306009     0.07300
C605        C  0.70802939  0.92375575  0.66595531    -0.05800
H606        H  0.70388238  0.94793915  0.67356507     0.08000
H607        H  0.70774324  0.91521908  0.66599118     0.09200
Cu608      Cu  0.71900665  0.95231988  0.65347667     0.44200
Cu609      Cu  0.72378645  0.92474657  0.64676427     0.42000
Cu610      Cu  0.73823725  0.94698980  0.63427118     0.43900
N611        N  0.72627588  0.96420252  0.64498360    -0.34400
N612        N  0.73374358  0.96228751  0.63797271    -0.28700
C613        C  0.73698837  0.97149781  0.63375881    -0.04800
C614        C  0.73119155  0.97957573  0.63833129     0.07400
C615        C  0.72444392  0.97464524  0.64536621     0.01200
H616        H  0.74286988  0.97222413  0.62760776     0.08900
H617        H  0.71861449  0.97837892  0.65037742     0.08000
N618        N  0.74057470  0.93115691  0.63077087    -0.35900
N619        N  0.73534228  0.92311584  0.63491269    -0.28100
C620        C  0.73872037  0.91413964  0.63024015    -0.03300
C621        C  0.74650343  0.91664252  0.62287083     0.05300
C622        C  0.74737468  0.92752934  0.62348984     0.03400
H623        H  0.73547404  0.90642241  0.63187985     0.08500
H624        H  0.75253714  0.93254453  0.61889745     0.07300
N625        N  0.57688962  0.85285180  0.80238939    -0.27000
N626        N  0.56668793  0.85084779  0.80325505    -0.34900
C627        C  0.56525330  0.84249115  0.80957546     0.01300
C628        C  0.57499841  0.83890167  0.81289815     0.07300
C629        C  0.58224072  0.84576164  0.80830989    -0.05800
H630        H  0.55760541  0.83934699  0.81171329     0.08000
H631        H  0.59074101  0.84550346  0.80908219     0.09200
Cu632      Cu  0.55487020  0.85929019  0.79592185     0.44200
Cu633      Cu  0.58248899  0.86497322  0.79260306     0.42000
Cu634      Cu  0.56146381  0.87800266  0.77644950     0.43900
N635        N  0.54359540  0.86781164  0.78786891    -0.34400
N636        N  0.54586721  0.87462736  0.78032545    -0.28700
C637        C  0.53679068  0.87879336  0.77661316    -0.04800
C638        C  0.52847174  0.87437866  0.78221019     0.07400
C639        C  0.53310804  0.86750184  0.78928200     0.01200
H640        H  0.53630606  0.88478658  0.77055275     0.08900
H641        H  0.52913454  0.86262867  0.79506243     0.08000
N642        N  0.57760085  0.88084878  0.77515551    -0.35900
N643        N  0.58509448  0.87662159  0.78111021    -0.28100
C644        C  0.59446538  0.88081936  0.77826409    -0.03300
C645        C  0.59277767  0.88791679  0.77010232     0.05300
C646        C  0.58202471  0.88766698  0.76833343     0.03400
H647        H  0.60196695  0.87874794  0.78177442     0.08500
H648        H  0.57768038  0.89228938  0.76261949     0.07300
N649        N  0.65850711  0.92929511  0.71691747    -0.27000
N650        N  0.66163688  0.93923375  0.71692290    -0.34900
C651        C  0.67021741  0.94026419  0.71083727     0.01300
C652        C  0.67282539  0.93048968  0.70675241     0.07300
C653        C  0.66511283  0.92368542  0.71065509    -0.05800
H654        H  0.67410563  0.94770593  0.70927675     0.08000
H655        H  0.66440008  0.91531807  0.70909417     0.09200
Cu656      Cu  0.65408675  0.95123885  0.72479339     0.44200
Cu657      Cu  0.64534159  0.92472302  0.72587906     0.42000
Cu658      Cu  0.63196104  0.94687826  0.74100411     0.43900
N659        N  0.64629462  0.96332851  0.73228294    -0.34400
N660        N  0.63794258  0.96202222  0.73836153    -0.28700
C661        C  0.63473855  0.97160142  0.74182352    -0.04800
C662        C  0.64157068  0.97922052  0.73779166     0.07400
C663        C  0.64866115  0.97360783  0.73166740     0.01200
H664        H  0.62797365  0.97292681  0.74686945     0.08900
H665        H  0.65493211  0.97675218  0.72680371     0.08000
N666        N  0.62833232  0.93079484  0.74206684    -0.35900
N667        N  0.63275469  0.92304317  0.73655803    -0.28100
C668        C  0.62822581  0.91383223  0.73939472    -0.03300
C669        C  0.62073071  0.91585260  0.74709422     0.05300
C670        C  0.62105280  0.92665197  0.74861030     0.03400
H671        H  0.63042800  0.90618517  0.73628330     0.08500
H672        H  0.61630360  0.93119123  0.75407485     0.07300
N673        N  0.57608339  0.79701787  0.85959632    -0.27000
N674        N  0.56600240  0.79919112  0.85804008    -0.34900
C675        C  0.56502549  0.80581164  0.84986379     0.01300
C676        C  0.57495538  0.80809329  0.84603375     0.07300
C677        C  0.58185531  0.80240763  0.85240447    -0.05800
H678        H  0.55757577  0.80873458  0.84687860     0.08000
H679        H  0.59035292  0.80197735  0.85166514     0.09200
Cu680      Cu  0.55374274  0.79304326  0.86671263     0.44200
Cu681      Cu  0.58070316  0.78614153  0.87117859     0.42000
Cu682      Cu  0.55810903  0.77290687  0.88530027     0.43900
N683        N  0.54166100  0.78627769  0.87516771    -0.34400
N684        N  0.54301053  0.77857531  0.88204012    -0.28700
C685        C  0.53350665  0.77588851  0.88606979    -0.04800
C686        C  0.52588028  0.78230865  0.88146697     0.07400
C687        C  0.53140285  0.78877306  0.87463424     0.01200
H688        H  0.53229311  0.76991556  0.89204543     0.08900
H689        H  0.52817966  0.79483923  0.86956008     0.08000
N690        N  0.57409992  0.76954534  0.88742376    -0.35900
N691        N  0.58212105  0.77428867  0.88266752    -0.28100
C692        C  0.59120850  0.77025816  0.88648165    -0.03300
C693        C  0.58884460  0.76254325  0.89392360     0.05300
C694        C  0.57790110  0.76239707  0.89427570     0.03400
H695        H  0.59895074  0.77303935  0.88422047     0.08500
H696        H  0.57298696  0.75749479  0.89924738     0.07300
N697        N  0.65382063  0.70730668  0.93464449    -0.27000
N698        N  0.65633768  0.70629184  0.94470857    -0.34900
C699        C  0.66463322  0.69980416  0.94564818     0.01300
C700        C  0.66767564  0.69651483  0.93571648     0.07300
C701        C  0.66053759  0.70130418  0.92887337    -0.05800
H702        H  0.66820110  0.69762892  0.95309024     0.08000
H703        H  0.66041083  0.70067470  0.92036300     0.09200
Cu704      Cu  0.64884797  0.71377605  0.95704658     0.44200
Cu705      Cu  0.64153046  0.71743208  0.92996598     0.42000
Cu706      Cu  0.62870703  0.73209559  0.95260234     0.43900
N707        N  0.64150155  0.72163818  0.96923221    -0.34400
N708        N  0.63391844  0.72862319  0.96781342    -0.28700
C709        C  0.63092091  0.73241485  0.97732306    -0.04800
C710        C  0.63697334  0.72750265  0.98508550     0.07400
C711        C  0.64356668  0.72074308  0.97955465     0.01200
H712        H  0.62497589  0.73843995  0.97843039     0.08900
H713        H  0.64943653  0.71545579  0.98279789     0.08000
N714        N  0.62494413  0.73372116  0.93664906    -0.35900
N715        N  0.62928565  0.72859083  0.92861803    -0.28100
C716        C  0.62452599  0.73175834  0.91962780    -0.03300
C717        C  0.61676731  0.73912017  0.92210420     0.05300
C718        C  0.61741594  0.74021827  0.93295854     0.03400
H719        H  0.62647674  0.72880585  0.91185619     0.08500
H720        H  0.61284966  0.74548344  0.93789104     0.07300
N721        N  0.80251580  0.57468768  0.85757737    -0.27000
N722        N  0.80415142  0.56449779  0.85603596    -0.34900
C723        C  0.81246729  0.56316077  0.84964715     0.01300
C724        C  0.81647375  0.57295239  0.84702584     0.07300
C725        C  0.80986623  0.58014566  0.85206962    -0.05800
H726        H  0.81540227  0.55554428  0.84711819     0.08000
H727        H  0.81053658  0.58866008  0.85197237     0.09200
Cu728      Cu  0.79550657  0.55250405  0.86274926     0.44200
Cu729      Cu  0.79047263  0.57997647  0.86766610     0.42000
Cu730      Cu  0.77492144  0.55799972  0.88026634     0.43900
N731        N  0.78663766  0.54076241  0.86960149    -0.34400
N732        N  0.77890152  0.54261870  0.87632146    -0.28700
C733        C  0.77451082  0.53334031  0.87917166    -0.04800
C734        C  0.77977992  0.52532258  0.87386525     0.07400
C735        C  0.78738400  0.53035451  0.86788479     0.01200
H736        H  0.76778825  0.53253450  0.88437874     0.08900
H737        H  0.79297928  0.52671464  0.86254737     0.08000
N738        N  0.77276650  0.57402811  0.88292782    -0.35900
N739        N  0.77816475  0.58189179  0.87862747    -0.28100
C740        C  0.77471308  0.59105766  0.88284221    -0.03300
C741        C  0.76678096  0.58884376  0.89009545     0.05300
C742        C  0.76582127  0.57797228  0.88988950     0.03400
H743        H  0.77806668  0.59870796  0.88108016     0.08500
H744        H  0.76056784  0.57319511  0.89463493     0.07300
N745        N  0.71086824  0.65095947  0.93332247    -0.27000
N746        N  0.70897125  0.65249066  0.94346547    -0.34900
C747        C  0.70205375  0.66041722  0.94462059     0.01300
C748        C  0.69927898  0.66408285  0.93475842     0.07300
C749        C  0.70499843  0.65789711  0.92770951    -0.05800
H750        H  0.69927138  0.66335658  0.95214379     0.08000
H751        H  0.70511623  0.65859557  0.91920441     0.09200
Cu752      Cu  0.71588023  0.64413072  0.95559131     0.44200
Cu753      Cu  0.72195750  0.63972285  0.92829061     0.42000
Cu754      Cu  0.73718372  0.62712618  0.95037053     0.43900
N755        N  0.72368785  0.63608256  0.96737341    -0.34400
N756        N  0.73193964  0.62995934  0.96563865    -0.28700
C757        C  0.73524323  0.62592089  0.97491939    -0.04800
C758        C  0.72864512  0.62969666  0.98282164     0.07400
C759        C  0.72141836  0.63607087  0.97770535     0.01200
H760        H  0.74169756  0.62039361  0.97578914     0.08900
H761        H  0.71494551  0.64038557  0.98124609     0.08000
N762        N  0.73920092  0.62400290  0.93439353    -0.35900
N763        N  0.73374237  0.62819188  0.92652280    -0.28100
C764        C  0.73691936  0.62364903  0.91742944    -0.03300
C765        C  0.74464222  0.61619393  0.91968267     0.05300
C766        C  0.74593907  0.61678829  0.93051033     0.03400
H767        H  0.73366960  0.62547367  0.90975305     0.08500
H768        H  0.75140252  0.61232932  0.93530850     0.07300
N769        N  0.85129995  0.79250040  0.57416861    -0.27000
N770        N  0.84993908  0.79437661  0.56401344    -0.34900
C771        C  0.84219005  0.80145785  0.56274448     0.01300
C772        C  0.83823509  0.80416537  0.57255286     0.07300
C773        C  0.84432945  0.79843628  0.57967377    -0.05800
H774        H  0.83975967  0.80453933  0.55516965     0.08000
H775        H  0.84369277  0.79853011  0.58818501     0.09200
Cu776      Cu  0.85832776  0.78722678  0.55204611     0.44200
Cu777      Cu  0.86281330  0.78182342  0.57933008     0.42000
Cu778      Cu  0.87652289  0.76687177  0.55760635     0.43900
N779        N  0.86638754  0.77929608  0.54034547    -0.34400
N780        N  0.87306345  0.77149930  0.54216882    -0.28700
C781        C  0.87729043  0.76837047  0.53288389    -0.04800
C782        C  0.87311219  0.77465164  0.52493094     0.07400
C783        C  0.86618945  0.78140747  0.52998210     0.01200
H784        H  0.88332896  0.76238397  0.53204736     0.08900
H785        H  0.86155530  0.78763258  0.52641444     0.08000
N786        N  0.87968673  0.76545401  0.57374015    -0.35900
N787        N  0.87506453  0.77088606  0.58140936    -0.28100
C788        C  0.87965142  0.76830892  0.59065486    -0.03300
C789        C  0.88751803  0.76092176  0.58875136     0.05300
C790        C  0.88722377  0.75926678  0.57795734     0.03400
H791        H  0.87735952  0.77154110  0.59821798     0.08500
H792        H  0.89233244  0.75411903  0.57343673     0.07300
N793        N  0.93190287  0.71173365  0.65535950    -0.27000
N794        N  0.94147319  0.71301932  0.65929110    -0.34900
C795        C  0.94245615  0.70729012  0.66812433     0.01300
C796        C  0.93309985  0.70199813  0.66991722     0.07300
C797        C  0.92653308  0.70497619  0.66164334    -0.05800
H798        H  0.94954553  0.70691931  0.67286694     0.08000
H799        H  0.91841818  0.70261796  0.66043015     0.09200
Cu800      Cu  0.95315999  0.72198354  0.65239376     0.44200
Cu801      Cu  0.92706164  0.71995244  0.64184881     0.42000
Cu802      Cu  0.94825187  0.73574490  0.62860767     0.43900
N803        N  0.96502549  0.72888289  0.64367392    -0.34400
N804        N  0.96345756  0.73379286  0.63462970    -0.28700
C805        C  0.97291841  0.73654718  0.63055642    -0.04800
C806        C  0.98079121  0.73313982  0.63742167     0.07400
C807        C  0.97540683  0.72838106  0.64564697     0.01200
H808        H  0.97395205  0.74067661  0.62316310     0.08900
H809        H  0.97881210  0.72443349  0.65240636     0.08000
N810        N  0.93221866  0.73621584  0.62477927    -0.35900
N811        N  0.92472712  0.73038957  0.62920912    -0.28100
C812        C  0.91541851  0.73271401  0.62459965    -0.03300
C813        C  0.91711692  0.74041269  0.61703784     0.05300
C814        C  0.92782047  0.74246031  0.61739041     0.03400
H815        H  0.90793095  0.72920184  0.62672975     0.08500
H816        H  0.93212345  0.74803817  0.61256340     0.07300
N817        N  0.86122673  0.57544931  0.80289524    -0.27000
N818        N  0.85995068  0.56529531  0.80489291    -0.34900
C819        C  0.85310618  0.56408223  0.81284190     0.01300
C820        C  0.84973629  0.57391368  0.81613183     0.07300
C821        C  0.85503897  0.58101814  0.80961429    -0.05800
H822        H  0.85067643  0.55651044  0.81596318     0.08000
H823        H  0.85459396  0.58954368  0.80986574     0.09200
Cu824      Cu  0.86724490  0.55316168  0.79693080     0.44200
Cu825      Cu  0.87168164  0.58038604  0.79103323     0.42000
Cu826      Cu  0.88430364  0.55792636  0.77579168     0.43900
N827        N  0.87444340  0.54106733  0.78881567    -0.34400
N828        N  0.88088553  0.54260117  0.78078692    -0.28700
C829        C  0.88446659  0.53312694  0.77741897    -0.04800
C830        C  0.87999627  0.52528414  0.78370390     0.07400
C831        C  0.87370300  0.53070616  0.79081390     0.01200
H832        H  0.89013790  0.53208445  0.77112327     0.08900
H833        H  0.86893298  0.52736293  0.79705998     0.08000
N834        N  0.88687329  0.57402940  0.77327711    -0.35900
N835        N  0.88262561  0.58194589  0.77866402    -0.28100
C836        C  0.88657848  0.59109635  0.77492558    -0.03300
C837        C  0.89368582  0.58888606  0.76687306     0.05300
C838        C  0.89353634  0.57797627  0.76601304     0.03400
H839        H  0.88456871  0.59881293  0.77799471     0.08500
H840        H  0.89788685  0.57317216  0.76045804     0.07300
N841        N  0.93175918  0.65951124  0.71592930    -0.27000
N842        N  0.94120821  0.66380278  0.71704743    -0.34900
C843        C  0.94202962  0.67222470  0.71069778     0.01300
C844        C  0.93268149  0.67341921  0.70522478     0.07300
C845        C  0.92634823  0.66512691  0.70864260    -0.05800
H846        H  0.94914836  0.67684835  0.70975547     0.08000
H847        H  0.91846017  0.66326874  0.70596061     0.09200
Cu848      Cu  0.95338540  0.65756350  0.72590094     0.44200
Cu849      Cu  0.92717577  0.64607395  0.72448229     0.42000
Cu850      Cu  0.94912679  0.63384349  0.73959506     0.43900
N851        N  0.96560051  0.64907147  0.73256512    -0.34400
N852        N  0.96414029  0.64003545  0.73752732    -0.28700
C853        C  0.97360781  0.63601406  0.74025412    -0.04800
C854        C  0.98140477  0.64289125  0.73677520     0.07400
C855        C  0.97598424  0.65109760  0.73199836     0.01200
H856        H  0.97470042  0.62866047  0.74444953     0.08900
H857        H  0.97936464  0.65790047  0.72809407     0.08000
N858        N  0.93348221  0.62901005  0.74016950    -0.35900
N859        N  0.92555114  0.63319528  0.73480260    -0.28100
C860        C  0.91663623  0.62788658  0.73725087    -0.03300
C861        C  0.91908734  0.62002816  0.74451697     0.05300
C862        C  0.92984568  0.62101483  0.74609562     0.03400
H863        H  0.90898773  0.62954043  0.73384955     0.08500
H864        H  0.93471593  0.61630117  0.75128752     0.07300
N865        N  0.43287940  0.85814614  0.80107774    -0.27000
N866        N  0.44286484  0.85754723  0.80400172    -0.34900
C867        C  0.44359170  0.85190523  0.81290429     0.01300
C868        C  0.43358479  0.84874032  0.81582860     0.07300
C869        C  0.42694075  0.85271171  0.80807474    -0.05800
H870        H  0.45093374  0.85004933  0.81684885     0.08000
H871        H  0.41846294  0.85180247  0.80761316     0.09200
Cu872      Cu  0.45526060  0.86406983  0.79578924     0.44200
Cu873      Cu  0.42847361  0.86678765  0.78778590     0.42000
Cu874      Cu  0.45087071  0.87867534  0.77240465     0.43900
N875        N  0.46733851  0.87077313  0.78725652    -0.34400
N876        N  0.46597262  0.87616993  0.77845706    -0.28700
C877        C  0.47548932  0.87952530  0.77500386    -0.04800
C878        C  0.48312051  0.87616944  0.78213084     0.07400
C879        C  0.47762327  0.87053862  0.78968619     0.01200
H880        H  0.47674363  0.88418347  0.76796084     0.08900
H881        H  0.48085897  0.86644001  0.79643659     0.08000
N882        N  0.43482947  0.88088696  0.76931743    -0.35900
N883        N  0.42691073  0.87680801  0.77480019    -0.28100
C884        C  0.41776426  0.88073883  0.77107384    -0.03300
C885        C  0.41995879  0.88757488  0.76280297     0.05300
C886        C  0.43087844  0.88744101  0.76196787     0.03400
H887        H  0.41013757  0.87916166  0.77456614     0.08500
H888        H  0.43567322  0.89204303  0.75660724     0.07300
N889        N  0.35176877  0.92879338  0.71311853    -0.27000
N890        N  0.34859598  0.93872870  0.71269927    -0.34900
C891        C  0.33979807  0.93936010  0.70687681     0.01300
C892        C  0.33717324  0.92936533  0.70339151     0.07300
C893        C  0.34502931  0.92282072  0.70738099    -0.05800
H894        H  0.33571470  0.94665472  0.70511163     0.08000
H895        H  0.34573093  0.91437889  0.70627719     0.09200
Cu896      Cu  0.35628588  0.95134883  0.71960647     0.44200
Cu897      Cu  0.36507793  0.92443782  0.72187448     0.42000
Cu898      Cu  0.37898195  0.94705370  0.73501945     0.43900
N899        N  0.36453158  0.96359322  0.72654770    -0.34400
N900        N  0.37304829  0.96215734  0.73235043    -0.28700
C901        C  0.37645958  0.97162918  0.73584306    -0.04800
C902        C  0.36973064  0.97941645  0.73198547     0.07400
C903        C  0.36227413  0.97393672  0.72614881     0.01200
H904        H  0.38315599  0.97268815  0.74101540     0.08900
H905        H  0.35566835  0.97723270  0.72186428     0.08000
N906        N  0.38303417  0.93116187  0.73645707    -0.35900
N907        N  0.37820634  0.92312192  0.73182708    -0.28100
C908        C  0.38307339  0.91410336  0.73470340    -0.03300
C909        C  0.39141203  0.91655310  0.74136356     0.05300
C910        C  0.39102837  0.92744421  0.74235472     0.03400
H911        H  0.38074811  0.90631978  0.73206736     0.08500
H912        H  0.39604111  0.93236395  0.74719498     0.07300
N913        N  0.21126295  0.85240827  0.57724015    -0.27000
N914        N  0.21103614  0.84919354  0.56732763    -0.34900
C915        C  0.20448503  0.84094663  0.56643399     0.01300
C916        C  0.20021791  0.83877268  0.57621949     0.07300
C917        C  0.20467113  0.84622978  0.58295381    -0.05800
H918        H  0.20289361  0.83683066  0.55912352     0.08000
H919        H  0.20339914  0.84695602  0.59136322     0.09200
Cu920      Cu  0.21942742  0.85600416  0.55517389     0.44200
Cu921      Cu  0.22108032  0.86494909  0.58177037     0.42000
Cu922      Cu  0.23662639  0.87748229  0.55968967     0.43900
N923        N  0.22754964  0.86336350  0.54315582    -0.34400
N924        N  0.23392241  0.87147862  0.54458456    -0.28700
C925        C  0.23771810  0.87454412  0.53510229    -0.04800
C926        C  0.23361291  0.86787817  0.52741051     0.07400
C927        C  0.22712219  0.86099059  0.53285644     0.01200
H928        H  0.24308149  0.88107862  0.53389536     0.08900
H929        H  0.22222012  0.85482772  0.52955974     0.08000
N930        N  0.23752354  0.88161550  0.57563588    -0.35900
N931        N  0.23199615  0.87731524  0.58341004    -0.28100
C932        C  0.23463415  0.88211740  0.59252474    -0.03300
C933        C  0.24226974  0.88972722  0.59048257     0.05300
C934        C  0.24380470  0.88917862  0.57965647     0.03400
H935        H  0.23104952  0.88028836  0.60004347     0.08500
H936        H  0.24920403  0.89388210  0.57500385     0.07300
N937        N  0.29503555  0.92932729  0.65723828    -0.27000
N938        N  0.29554999  0.93914138  0.66075421    -0.34900
C939        C  0.30175578  0.93950604  0.66929464     0.01300
C940        C  0.30550053  0.92947747  0.67135102     0.07300
C941        C  0.30110708  0.92316138  0.66350775    -0.05800
H942        H  0.30358528  0.94664825  0.67360976     0.08000
H943        H  0.30210316  0.91473333  0.66253848     0.09200
Cu944      Cu  0.28853853  0.95202339  0.65369680     0.44200
Cu945      Cu  0.28561643  0.92539498  0.64417809     0.42000
Cu946      Cu  0.27284662  0.94844282  0.63102829     0.43900
N947        N  0.28307198  0.96449653  0.64479297    -0.34400
N948        N  0.27728021  0.96327971  0.63623742    -0.28700
C949        C  0.27551308  0.97281729  0.63187845    -0.04800
C950        C  0.28059339  0.98037361  0.63795370     0.07400
C951        C  0.28517572  0.97478297  0.64614808     0.01200
H952        H  0.27108147  0.97412142  0.62470357     0.08900
H953        H  0.28970953  0.97792115  0.65265707     0.08000
N954        N  0.27033503  0.93277375  0.62704850    -0.35900
N955        N  0.27490489  0.92451056  0.63153900    -0.28100
C956        C  0.27141933  0.91569371  0.62670212    -0.03300
C957        C  0.26441931  0.91853481  0.61875212     0.05300
C958        C  0.26388140  0.92943584  0.61932850     0.03400
H959        H  0.27387807  0.90777698  0.62876226     0.08500
H960        H  0.25902417  0.93463025  0.61461532     0.07300
N961        N  0.43128453  0.80423565  0.85966999    -0.27000
N962        N  0.44134107  0.80696215  0.85914658    -0.34900
C963        C  0.44243834  0.81510115  0.85248734     0.01300
C964        C  0.43264321  0.81763195  0.84845757     0.07300
C965        C  0.42569912  0.81056126  0.85314995    -0.05800
H966        H  0.44988618  0.81883729  0.85060384     0.08000
H967        H  0.41723717  0.81018165  0.85207450     0.09200
Cu968      Cu  0.45343234  0.79949933  0.86706931     0.44200
Cu969      Cu  0.42612125  0.79226430  0.86976500     0.42000
Cu970      Cu  0.44785883  0.77793277  0.88367349     0.43900
N971        N  0.46509084  0.79117900  0.87478649    -0.34400
N972        N  0.46318977  0.78304659  0.88100002    -0.28700
C973        C  0.47242790  0.77945473  0.88488890    -0.04800
C974        C  0.48050060  0.78577174  0.88099339     0.07400
C975        C  0.47550666  0.79300154  0.87449240     0.01200
H976        H  0.47319534  0.77285405  0.89024987     0.08900
H977        H  0.47915601  0.79907573  0.86973399     0.08000
N978        N  0.43181766  0.77523820  0.88574687    -0.35900
N979        N  0.42402766  0.78039837  0.88104605    -0.28100
C980        C  0.41476376  0.77675029  0.88481470    -0.03300
C981        C  0.41683778  0.76883269  0.89206931     0.05300
C982        C  0.42771529  0.76816473  0.89249124     0.03400
H983        H  0.40708437  0.77961329  0.88241529     0.08500
H984        H  0.43235489  0.76307585  0.89753737     0.07300
N985        N  0.35782536  0.70832470  0.93289573    -0.27000
N986        N  0.35381198  0.70811351  0.94252349    -0.34900
C987        C  0.34741712  0.69974169  0.94349318     0.01300
C988        C  0.34727585  0.69437273  0.93402372     0.07300
C989        C  0.35391653  0.70004866  0.92740074    -0.05800
H990        H  0.34319029  0.69767632  0.95062228     0.08000
H991        H  0.35593165  0.69817419  0.91931872     0.09200
Cu992      Cu  0.35709393  0.71899023  0.95418479     0.44200
Cu993      Cu  0.36860615  0.71999896  0.92838248     0.42000
Cu994      Cu  0.37488682  0.73990524  0.94934255     0.43900
N995        N  0.36142302  0.72964476  0.96570248    -0.34400
N996        N  0.36827644  0.73733022  0.96414287    -0.28700
C997        C  0.37015262  0.74218349  0.97342997    -0.04800
C998        C  0.36402079  0.73737382  0.98114998     0.07400
C999        C  0.35866834  0.72942022  0.97591698     0.01200
H1000       H  0.37577299  0.74851507  0.97453925     0.08900
H1001       H  0.35363486  0.72345764  0.97938523     0.08000
N1002       N  0.38019548  0.74043601  0.93380542    -0.35900
N1003       N  0.37831864  0.73323420  0.92644771    -0.28100
C1004       C  0.38333613  0.73610369  0.91751814    -0.03300
C1005       C  0.38840010  0.74562901  0.91927455     0.05300
C1006       C  0.38627776  0.74809933  0.92968219     0.03400
H1007       H  0.38319157  0.73165484  0.91023129     0.08500
H1008       H  0.38911974  0.75488173  0.93402336     0.07300
N1009       N  0.20933073  0.57546911  0.85743449    -0.27000
N1010       N  0.20763601  0.56539268  0.85531418    -0.34900
C1011       C  0.19904497  0.56446214  0.84922112     0.01300
C1012       C  0.19505608  0.57441359  0.84728549     0.07300
C1013       C  0.20183773  0.58127600  0.85251003    -0.05800
H1014       H  0.19593220  0.55703839  0.84636405     0.08000
H1015       H  0.20122417  0.58978726  0.85289663     0.09200
Cu1016     Cu  0.21674689  0.55308398  0.86081932     0.44200
Cu1017     Cu  0.22160929  0.58010332  0.86753953     0.42000
Cu1018     Cu  0.23760864  0.55770197  0.87865912     0.43900
N1019       N  0.22508677  0.54099376  0.86781205    -0.34400
N1020       N  0.23273527  0.54247199  0.87470923    -0.28700
C1021       C  0.23592512  0.53296469  0.87834562    -0.04800
C1022       C  0.22985540  0.52516829  0.87354211     0.07400
C1023       C  0.22323153  0.53063104  0.86677837     0.01200
H1024       H  0.24201480  0.53182520  0.88421413     0.08900
H1025       H  0.21743440  0.52736665  0.86144427     0.08000
N1026       N  0.24003751  0.57370779  0.88179535    -0.35900
N1027       N  0.23419768  0.58163882  0.87822632    -0.28100
C1028       C  0.23761149  0.59067418  0.88272260    -0.03300
C1029       C  0.24603641  0.58833106  0.88929126     0.05300
C1030       C  0.24737370  0.57754011  0.88844722     0.03400
H1031       H  0.23415605  0.59837212  0.88138633     0.08500
H1032       H  0.25301682  0.57274762  0.89270171     0.07300
N1033       N  0.30564852  0.64742887  0.93167758    -0.27000
N1034       N  0.30827963  0.64804414  0.94172576    -0.34900
C1035       C  0.31607179  0.65505908  0.94294619     0.01300
C1036       C  0.31864913  0.65922166  0.93320227     0.07300
C1037       C  0.31182564  0.65419188  0.92616695    -0.05800
H1038       H  0.31950446  0.65711040  0.95048667     0.08000
H1039       H  0.31147470  0.65522884  0.91770795     0.09200
Cu1040     Cu  0.30115344  0.63969881  0.95361699     0.44200
Cu1041     Cu  0.29363860  0.63704489  0.92693338     0.42000
Cu1042     Cu  0.27891092  0.62356472  0.94923472     0.43900
N1043       N  0.29327959  0.63234808  0.96569005    -0.34400
N1044       N  0.28475615  0.62650787  0.96438756    -0.28700
C1045       C  0.28138513  0.62326269  0.97397215    -0.04800
C1046       C  0.28829126  0.62717011  0.98155647     0.07400
C1047       C  0.29563597  0.63296212  0.97596921     0.01200
H1048       H  0.27450818  0.61838372  0.97532184     0.08900
H1049       H  0.30210711  0.63753256  0.97914947     0.08000
N1050       N  0.27617998  0.62133396  0.93308164    -0.35900
N1051       N  0.28152224  0.62582627  0.92526600    -0.28100
C1052       C  0.27797540  0.62191629  0.91603216    -0.03300
C1053       C  0.27002562  0.61468295  0.91807617     0.05300
C1054       C  0.26906041  0.61459578  0.92895493     0.03400
H1055       H  0.28097107  0.62419348  0.90836848     0.08500
H1056       H  0.26376607  0.60973272  0.93356642     0.07300
N1057       N  0.15483259  0.79543622  0.57681866    -0.27000
N1058       N  0.15772793  0.79583729  0.56680543    -0.34900
C1059       C  0.16593865  0.80243304  0.56577729     0.01300
C1060       C  0.16847164  0.80643049  0.57560014     0.07300
C1061       C  0.16117415  0.80192474  0.58244769    -0.05800
H1062       H  0.16980511  0.80419399  0.55836847     0.08000
H1063       H  0.16070347  0.80305369  0.59089517     0.09200
Cu1064     Cu  0.15061168  0.78748442  0.55474406     0.44200
Cu1065     Cu  0.14266908  0.78540010  0.58183366     0.42000
Cu1066     Cu  0.13122759  0.76828326  0.56062032     0.43900
N1067       N  0.14251983  0.77933489  0.54317454    -0.34400
N1068       N  0.13538597  0.77200670  0.54518142    -0.28700
C1069       C  0.13120268  0.76866004  0.53597351    -0.04800
C1070       C  0.13593707  0.77426355  0.52783676     0.07400
C1071       C  0.14303372  0.78094563  0.53272959     0.01200
H1072       H  0.12484776  0.76299801  0.53529582     0.08900
H1073       H  0.14801995  0.78677596  0.52897374     0.08000
N1074       N  0.12738697  0.76750585  0.57658105    -0.35900
N1075       N  0.13105595  0.77380921  0.58408507    -0.28100
C1076       C  0.12625388  0.77132460  0.59325897    -0.03300
C1077       C  0.11933532  0.76304653  0.59144413     0.05300
C1078       C  0.12032457  0.76081106  0.58082229     0.03400
H1079       H  0.12777662  0.77517905  0.60072179     0.08500
H1080       H  0.11602945  0.75488244  0.57642826     0.07300
N1081       N  0.07542289  0.70700074  0.65277568    -0.27000
N1082       N  0.06530339  0.70540477  0.65472366    -0.34900
C1083       C  0.06429511  0.69813870  0.66235472     0.01300
C1084       C  0.07424963  0.69499897  0.66553551     0.07300
C1085       C  0.08116656  0.70079188  0.65927566    -0.05800
H1086       H  0.05682249  0.69550160  0.66554713     0.08000
H1087       H  0.08969922  0.70047984  0.65939245     0.09200
Cu1088     Cu  0.05319534  0.71353313  0.64743818     0.44200
Cu1089     Cu  0.08031036  0.71784494  0.64132939     0.42000
Cu1090     Cu  0.05888483  0.73359612  0.62849484     0.43900
N1091       N  0.04163228  0.72252590  0.64028409    -0.34400
N1092       N  0.04352017  0.72985993  0.63311537    -0.28700
C1093       C  0.03425851  0.73428393  0.63022948    -0.04800
C1094       C  0.02625038  0.72958453  0.63604228     0.07400
C1095       C  0.03123466  0.72214789  0.64226440     0.01200
H1096       H  0.03345160  0.74066426  0.62461432     0.08900
H1097       H  0.02757400  0.71689624  0.64791775     0.08000
N1098       N  0.07503011  0.73544813  0.62570066    -0.35900
N1099       N  0.08260528  0.72964835  0.63000274    -0.28100
C1100       C  0.09196646  0.73271623  0.62599513    -0.03300
C1101       C  0.09024116  0.74086031  0.61891147     0.05300
C1102       C  0.07943036  0.74242456  0.61899211     0.03400
H1103       H  0.09949290  0.72928841  0.62812476     0.08500
H1104       H  0.07504516  0.74804103  0.61428695     0.07300
N1105       N  0.15097492  0.57581074  0.80295595    -0.27000
N1106       N  0.15217230  0.56573001  0.80536985    -0.34900
C1107       C  0.15865489  0.56482856  0.81366968     0.01300
C1108       C  0.16189065  0.57478951  0.81667096     0.07300
C1109       C  0.15688558  0.58162506  0.80968028    -0.05800
H1110       H  0.16107106  0.55739460  0.81711675     0.08000
H1111       H  0.15742465  0.59014822  0.80955310     0.09200
Cu1112     Cu  0.14562888  0.55335159  0.79709574     0.44200
Cu1113     Cu  0.14095718  0.58054186  0.79065091     0.42000
Cu1114     Cu  0.12813160  0.55825045  0.77599809     0.43900
N1115       N  0.13950312  0.54139297  0.78793223    -0.34400
N1116       N  0.13281614  0.54298467  0.78011118    -0.28700
C1117       C  0.13043912  0.53357301  0.77569255    -0.04800
C1118       C  0.13601521  0.52575229  0.78100207     0.07400
C1119       C  0.14167757  0.53105445  0.78866429     0.01200
H1120       H  0.12531585  0.53254288  0.76894791     0.08900
H1121       H  0.14704448  0.52763670  0.79435674     0.08000
N1122       N  0.12511273  0.57429977  0.77357431    -0.35900
N1123       N  0.12967305  0.58224259  0.77863145    -0.28100
C1124       C  0.12550724  0.59138942  0.77509100    -0.03300
C1125       C  0.11799141  0.58913814  0.76743369     0.05300
C1126       C  0.11797298  0.57821330  0.76676287     0.03400
H1127       H  0.12753568  0.59908682  0.77817525     0.08500
H1128       H  0.11303728  0.57340902  0.76172063     0.07300
N1129       N  0.07729853  0.65531436  0.71415645    -0.27000
N1130       N  0.06777864  0.65955963  0.71471972    -0.34900
C1131       C  0.06679571  0.66705049  0.70732057     0.01300
C1132       C  0.07610208  0.66764297  0.70169815     0.07300
C1133       C  0.08265325  0.66008861  0.70623532    -0.05800
H1134       H  0.05953754  0.67122844  0.70562947     0.08000
H1135       H  0.09041571  0.65776444  0.70352903     0.09200
Cu1136     Cu  0.05561118  0.65386682  0.72388112     0.44200
Cu1137     Cu  0.08149665  0.64242579  0.72374695     0.42000
Cu1138     Cu  0.05893651  0.63077780  0.73899853     0.43900
N1139       N  0.04313268  0.64631253  0.73106940    -0.34400
N1140       N  0.04412034  0.63752475  0.73657178    -0.28700
C1141       C  0.03444677  0.63441068  0.73979954    -0.04800
C1142       C  0.02709327  0.64173264  0.73623258     0.07400
C1143       C  0.03292336  0.64906994  0.73063482     0.01200
H1144       H  0.03288945  0.62742121  0.74445109     0.08900
H1145       H  0.02995077  0.65582699  0.72634312     0.08000
N1146       N  0.07467859  0.62603077  0.74011960    -0.35900
N1147       N  0.08270798  0.62998337  0.73469880    -0.28100
C1148       C  0.09159696  0.62487894  0.73761501    -0.03300
C1149       C  0.08907710  0.61732119  0.74516888     0.05300
C1150       C  0.07827590  0.61842533  0.74659220     0.03400
H1151       H  0.09935043  0.62653838  0.73444020     0.08500
H1152       H  0.07334377  0.61421237  0.75213322     0.07300
N1153       N  0.85841029  0.20377189  0.42891809    -0.27000
N1154       N  0.85579342  0.20297665  0.43897831    -0.34900
C1155       C  0.84772417  0.19623396  0.44003064     0.01300
C1156       C  0.84499040  0.19251853  0.43017730     0.07300
C1157       C  0.85199370  0.19737693  0.42325094    -0.05800
H1158       H  0.84400444  0.19427258  0.44746502     0.08000
H1159       H  0.85216197  0.19660485  0.41475273     0.09200
Cu1160     Cu  0.86289929  0.21113723  0.45107181     0.44200
Cu1161     Cu  0.87022557  0.21435515  0.42414247     0.42000
Cu1162     Cu  0.88168036  0.23094216  0.44620658     0.43900
N1163       N  0.87062199  0.21883867  0.46308660    -0.34400
N1164       N  0.87768870  0.22633099  0.46155070    -0.28700
C1165       C  0.88150591  0.22937940  0.47103353    -0.04800
C1166       C  0.87666656  0.22333251  0.47883341     0.07400
C1167       C  0.86972589  0.21686937  0.47343553     0.01200
H1168       H  0.88753478  0.23532007  0.47215612     0.08900
H1169       H  0.86437115  0.21111289  0.47676502     0.08000
N1170       N  0.88492424  0.23265370  0.43008798    -0.35900
N1171       N  0.88132727  0.22654753  0.42237220    -0.28100
C1172       C  0.88571378  0.22970860  0.41319706    -0.03300
C1173       C  0.89218040  0.23828955  0.41518349     0.05300
C1174       C  0.89149214  0.23991408  0.42594954     0.03400
H1175       H  0.88420073  0.22610762  0.40560682     0.08500
H1176       H  0.89566550  0.24581440  0.43049562     0.07300
N1177       N  0.93397126  0.29982494  0.35795888    -0.27000
N1178       N  0.94405220  0.30242923  0.35748211    -0.34900
C1179       C  0.94527066  0.31080501  0.35117025     0.01300
C1180       C  0.93551475  0.31370714  0.34732228     0.07300
C1181       C  0.92845649  0.30654429  0.35175662    -0.05800
H1182       H  0.95279264  0.31443130  0.34936676     0.08000
H1183       H  0.91999123  0.30631732  0.35066862     0.09200
Cu1184     Cu  0.95601914  0.29448735  0.36495083     0.44200
Cu1185     Cu  0.92902931  0.28716384  0.36738061     0.42000
Cu1186     Cu  0.95123812  0.27108419  0.37906818     0.43900
N1187       N  0.96792712  0.28600263  0.37190573    -0.34400
N1188       N  0.96643692  0.27709114  0.37707977    -0.28700
C1189       C  0.97587168  0.27358811  0.38060080    -0.04800
C1190       C  0.98356828  0.28081042  0.37758348     0.07400
C1191       C  0.97820205  0.28846962  0.37197568     0.01200
H1192       H  0.97702388  0.26644919  0.38514193     0.08900
H1193       H  0.98152343  0.29529914  0.36807156     0.08000
N1194       N  0.93513037  0.26825237  0.38116012    -0.35900
N1195       N  0.92729170  0.27408815  0.37739714    -0.28100
C1196       C  0.91809910  0.27030510  0.38120710    -0.03300
C1197       C  0.92020640  0.26160234  0.38749644     0.05300
C1198       C  0.93108198  0.26058729  0.38729799     0.03400
H1199       H  0.91043119  0.27370252  0.37959089     0.08500
H1200       H  0.93577519  0.25495901  0.39167990     0.07300
N1201       N  0.86105624  0.42700054  0.20515936    -0.27000
N1202       N  0.86063746  0.43705856  0.20241296    -0.34900
C1203       C  0.85411191  0.43818679  0.19417535     0.01300
C1204       C  0.85006748  0.42841078  0.19157366     0.07300
C1205       C  0.85461753  0.42144385  0.19872303    -0.05800
H1206       H  0.85226473  0.44565862  0.19046935     0.08000
H1207       H  0.85343530  0.41299545  0.19913933     0.09200
Cu1208     Cu  0.86832515  0.44915286  0.21013917     0.44200
Cu1209     Cu  0.87068470  0.42187898  0.21754277     0.42000
Cu1210     Cu  0.88211907  0.44378751  0.23369185     0.43900
N1211       N  0.87512735  0.46090303  0.21912954    -0.34400
N1212       N  0.88009116  0.45910146  0.22809782    -0.28700
C1213       C  0.88345174  0.46839261  0.23208613    -0.04800
C1214       C  0.88040851  0.47640782  0.22523782     0.07400
C1215       C  0.87518668  0.47129938  0.21712013     0.01200
H1216       H  0.88795834  0.46920306  0.23928304     0.08900
H1217       H  0.87157732  0.47490024  0.21027367     0.08000
N1218       N  0.88475136  0.42774621  0.23615454    -0.35900
N1219       N  0.88113888  0.41994747  0.23018268    -0.28100
C1220       C  0.88553418  0.41081770  0.23345564    -0.03300
C1221       C  0.89208157  0.41298239  0.24192862     0.05300
C1222       C  0.89133767  0.42374736  0.24344430     0.03400
H1223       H  0.88419356  0.40319927  0.22983426     0.08500
H1224       H  0.89568740  0.42841941  0.24911240     0.07300
N1225       N  0.93653350  0.35582389  0.30127190    -0.27000
N1226       N  0.94663091  0.35407591  0.30320711    -0.34900
C1227       C  0.94751869  0.34785067  0.31172000     0.01300
C1228       C  0.93750086  0.34549288  0.31534109     0.07300
C1229       C  0.93068377  0.35058089  0.30846821    -0.05800
H1230       H  0.95492950  0.34507426  0.31492994     0.08000
H1231       H  0.92214834  0.35057696  0.30875219     0.09200
Cu1232     Cu  0.95881311  0.35987035  0.29404123     0.44200
Cu1233     Cu  0.93167353  0.36563742  0.28904411     0.42000
Cu1234     Cu  0.95286202  0.37766347  0.27282798     0.43900
N1235       N  0.97017030  0.36613293  0.28415840    -0.34400
N1236       N  0.96817578  0.37295675  0.27652528    -0.28700
C1237       C  0.97734112  0.37553860  0.27175008    -0.04800
C1238       C  0.98539568  0.36994046  0.27658678     0.07400
C1239       C  0.98055437  0.36404537  0.28435839     0.01200
H1240       H  0.97804701  0.38083500  0.26509196     0.08900
H1241       H  0.98431381  0.35861898  0.28977432     0.08000
N1242       N  0.93676592  0.38049521  0.27088681    -0.35900
N1243       N  0.92922190  0.37629000  0.27678000    -0.28100
C1244       C  0.91982931  0.38009766  0.27360580    -0.03300
C1245       C  0.92150002  0.38701565  0.26531658     0.05300
C1246       C  0.93232157  0.38699515  0.26375588     0.03400
H1247       H  0.91232797  0.37792421  0.27706119     0.08500
H1248       H  0.93667537  0.39156288  0.25800128     0.07300
N1249       N  0.80049194  0.14831869  0.43087162    -0.27000
N1250       N  0.80184946  0.15118855  0.44081125    -0.34900
C1251       C  0.80909095  0.15887858  0.44132487     0.01300
C1252       C  0.81265858  0.16099131  0.43126745     0.07300
C1253       C  0.80706469  0.15413452  0.42476790    -0.05800
H1254       H  0.81156043  0.16271460  0.44854188     0.08000
H1255       H  0.80748904  0.15366556  0.41625632     0.09200
Cu1256     Cu  0.79413151  0.14474542  0.45358772     0.44200
Cu1257     Cu  0.78904833  0.13703306  0.42664802     0.42000
Cu1258     Cu  0.77490517  0.12525632  0.44979802     0.43900
N1259       N  0.78703866  0.13705987  0.46603020    -0.34400
N1260       N  0.77980896  0.12967852  0.46478910    -0.28700
C1261       C  0.77701430  0.12594279  0.47435907    -0.04800
C1262       C  0.78283213  0.13128912  0.48196701     0.07400
C1263       C  0.78909963  0.13824253  0.47633256     0.01200
H1264       H  0.77142527  0.11961692  0.47562680     0.08900
H1265       H  0.79480783  0.14375124  0.47949074     0.08000
N1266       N  0.77159236  0.12211315  0.43404769    -0.35900
N1267       N  0.77649645  0.12615182  0.42573590    -0.28100
C1268       C  0.77219729  0.12195284  0.41693147    -0.03300
C1269       C  0.76423643  0.11497026  0.41985141     0.05300
C1270       C  0.76416361  0.11530712  0.43075829     0.03400
H1271       H  0.77492199  0.12359557  0.40901131     0.08500
H1272       H  0.75912167  0.11081847  0.43598968     0.07300
N1273       N  0.71016659  0.07161714  0.35591418    -0.27000
N1274       N  0.71089549  0.06188758  0.35221302    -0.34900
C1275       C  0.70477272  0.06089016  0.34365856     0.01300
C1276       C  0.69980475  0.07041344  0.34174281     0.07300
C1277       C  0.70339309  0.07708622  0.34971782    -0.05800
H1278       H  0.70395386  0.05367408  0.33915947     0.08000
H1279       H  0.70146017  0.08533997  0.35076632     0.09200
Cu1280     Cu  0.71988088  0.05002671  0.35878903     0.44200
Cu1281     Cu  0.71913233  0.07647976  0.36900937     0.42000
Cu1282     Cu  0.73534037  0.05490334  0.38126413     0.43900
N1283       N  0.72746687  0.03812123  0.36685539    -0.34400
N1284       N  0.73322398  0.03972274  0.37537787    -0.28700
C1285       C  0.73616917  0.03028029  0.37935618    -0.04800
C1286       C  0.73188341  0.02242765  0.37304074     0.07400
C1287       C  0.72652359  0.02772056  0.36516011     0.01200
H1288       H  0.74055631  0.02920695  0.38659579     0.08900
H1289       H  0.72187424  0.02425667  0.35889526     0.08000
N1290       N  0.73569384  0.07076159  0.38559638    -0.35900
N1291       N  0.72996643  0.07847109  0.38144550    -0.28100
C1292       C  0.73259825  0.08760989  0.38626495    -0.03300
C1293       C  0.74025809  0.08555616  0.39384686     0.05300
C1294       C  0.74204639  0.07479288  0.39306146     0.03400
H1295       H  0.72922082  0.09521699  0.38434502     0.08500
H1296       H  0.74780786  0.07019621  0.39735894     0.07300
N1297       N  0.57775002  0.14398038  0.20368694    -0.27000
N1298       N  0.56762063  0.14497217  0.20140907    -0.34900
C1299       C  0.56645793  0.15137474  0.19307921     0.01300
C1300       C  0.57629727  0.15473835  0.18984542     0.07300
C1301       C  0.58333489  0.14999616  0.19683303    -0.05800
H1302       H  0.55891546  0.15377301  0.18987063     0.08000
H1303       H  0.59182715  0.15088306  0.19693383     0.09200
Cu1304     Cu  0.55547932  0.13879435  0.21025535     0.44200
Cu1305     Cu  0.58268151  0.13425930  0.21623577     0.42000
Cu1306     Cu  0.56065060  0.12382652  0.23317898     0.43900
N1307       N  0.54367812  0.13411684  0.22039885    -0.34400
N1308       N  0.54536504  0.12838292  0.22893155    -0.28700
C1309       C  0.53605924  0.12690192  0.23392779    -0.04800
C1310       C  0.52824142  0.13209075  0.22825409     0.07400
C1311       C  0.53339888  0.13660209  0.21978344     0.01200
H1312       H  0.53511154  0.12271507  0.24130604     0.08900
H1313       H  0.52994567  0.14146350  0.21367301     0.08000
N1314       N  0.57668330  0.12030666  0.23510530    -0.35900
N1315       N  0.58446971  0.12368897  0.22896450    -0.28100
C1316       C  0.59356724  0.11919828  0.23223255    -0.03300
C1317       C  0.59144587  0.11281327  0.24087280     0.05300
C1318       C  0.58068702  0.11378007  0.24248420     0.03400
H1319       H  0.60118548  0.12049526  0.22859311     0.08500
H1320       H  0.57604033  0.10976866  0.24842170     0.07300
N1321       N  0.65539454  0.07181312  0.29729958    -0.27000
N1322       N  0.65852618  0.06186339  0.29737427    -0.34900
C1323       C  0.66685308  0.06078266  0.30378165     0.01300
C1324       C  0.66928858  0.07051417  0.30803080     0.07300
C1325       C  0.66175149  0.07736674  0.30386123    -0.05800
H1326       H  0.67071651  0.05333917  0.30541395     0.08000
H1327       H  0.66102493  0.08573664  0.30540704     0.09200
Cu1328     Cu  0.65129958  0.04980393  0.28931344     0.44200
Cu1329     Cu  0.64262428  0.07653431  0.28773959     0.42000
Cu1330     Cu  0.62967251  0.05431265  0.27260054     0.43900
N1331       N  0.64310552  0.03767516  0.28236285    -0.34400
N1332       N  0.63492319  0.03907899  0.27608400    -0.28700
C1333       C  0.63108204  0.02951524  0.27332480    -0.04800
C1334       C  0.63711961  0.02182102  0.27829809     0.07400
C1335       C  0.64470636  0.02732850  0.28384718     0.01200
H1336       H  0.62423240  0.02826153  0.26839112     0.08900
H1337       H  0.65087929  0.02406289  0.28875799     0.08000
N1338       N  0.62625194  0.07038356  0.27095448    -0.35900
N1339       N  0.63050064  0.07822859  0.27644590    -0.28100
C1340       C  0.62609550  0.08739289  0.27322624    -0.03300
C1341       C  0.61883355  0.08523722  0.26531379     0.05300
C1342       C  0.61921867  0.07439439  0.26407723     0.03400
H1343       H  0.62820602  0.09509525  0.27625181     0.08500
H1344       H  0.61462734  0.06972130  0.25860399     0.07300
N1345       N  0.65848965  0.29219788  0.07759735    -0.27000
N1346       N  0.66096321  0.29329761  0.06752375    -0.34900
C1347       C  0.66967187  0.29921357  0.06663485     0.01300
C1348       C  0.67293635  0.30208631  0.07659969     0.07300
C1349       C  0.66560315  0.29761584  0.08342381    -0.05800
H1350       H  0.67318681  0.30155490  0.05921085     0.08000
H1351       H  0.66545818  0.29824895  0.09193381     0.09200
Cu1352     Cu  0.65218360  0.28770966  0.05508593     0.44200
Cu1353     Cu  0.64542638  0.28320326  0.08231023     0.42000
Cu1354     Cu  0.62940075  0.27265190  0.05983585     0.43900
N1355       N  0.64229728  0.28301799  0.04311489    -0.34400
N1356       N  0.63378523  0.27722256  0.04467070    -0.28700
C1357       C  0.62904590  0.27552552  0.03528887    -0.04800
C1358       C  0.63481700  0.28071556  0.02755066     0.07400
C1359       C  0.64319264  0.28528900  0.03282357     0.01200
H1360       H  0.62187556  0.27102018  0.03420169     0.08900
H1361       H  0.64955811  0.28985440  0.02941897     0.08000
N1362       N  0.62653934  0.26976927  0.07578047    -0.35900
N1363       N  0.63212399  0.27344792  0.08381653    -0.28100
C1364       C  0.62779693  0.26987360  0.09287153    -0.03300
C1365       C  0.61901431  0.26377995  0.09044465     0.05300
C1366       C  0.61857904  0.26383857  0.07952451     0.03400
H1367       H  0.63076266  0.27167583  0.10066780     0.08500
H1368       H  0.61298029  0.25971619  0.07458106     0.07300
N1369       N  0.57700043  0.20315174  0.14969151    -0.27000
N1370       N  0.56697017  0.20029975  0.14995657    -0.34900
C1371       C  0.56589756  0.19168799  0.15601913     0.01300
C1372       C  0.57568396  0.18893597  0.15995637     0.07300
C1373       C  0.58259068  0.19640636  0.15579859    -0.05800
H1374       H  0.55846076  0.18779393  0.15759916     0.08000
H1375       H  0.59104281  0.19677442  0.15694908     0.09200
Cu1376     Cu  0.55487970  0.20847919  0.14274313     0.44200
Cu1377     Cu  0.58201668  0.21596136  0.14042511     0.42000
Cu1378     Cu  0.56014485  0.23210472  0.12879848     0.43900
N1379       N  0.54306958  0.21819963  0.13716245    -0.34400
N1380       N  0.54480920  0.22715287  0.13212904    -0.28700
C1381       C  0.53542586  0.23164641  0.12979316    -0.04800
C1382       C  0.52743304  0.22514067  0.13358721     0.07400
C1383       C  0.53264356  0.21671221  0.13817950     0.01200
H1384       H  0.53451061  0.23894210  0.12545593     0.08900
H1385       H  0.52910606  0.20997855  0.14206469     0.08000
N1386       N  0.57621428  0.23435886  0.12594721    -0.35900
N1387       N  0.58401551  0.22858907  0.12983567    -0.28100
C1388       C  0.59318932  0.23199055  0.12561277    -0.03300
C1389       C  0.59113706  0.24039912  0.11882633     0.05300
C1390       C  0.58024485  0.24157935  0.11930330     0.03400
H1391       H  0.60071350  0.22826791  0.12709924     0.08500
H1392       H  0.57548662  0.24722465  0.11502290     0.07300
N1393       N  0.80281094  0.42766631  0.15083872    -0.27000
N1394       N  0.80487249  0.43780427  0.15210563    -0.34900
C1395       C  0.81370931  0.43890480  0.15781100     0.01300
C1396       C  0.81742531  0.42897623  0.16035815     0.07300
C1397       C  0.81026384  0.42198602  0.15591351    -0.05800
H1398       H  0.81699622  0.44640479  0.16024148     0.08000
H1399       H  0.81046643  0.41345640  0.15632517     0.09200
Cu1400     Cu  0.79516177  0.44970209  0.14677220     0.44200
Cu1401     Cu  0.78991486  0.42275472  0.14192906     0.42000
Cu1402     Cu  0.77246689  0.44408861  0.13104721     0.43900
N1403       N  0.78465454  0.46112419  0.14193409    -0.34400
N1404       N  0.77630958  0.45935090  0.13595389    -0.28700
C1405       C  0.77142694  0.46865500  0.13409022    -0.04800
C1406       C  0.77691555  0.47655370  0.13936608     0.07400
C1407       C  0.78527801  0.47144640  0.14414174     0.01200
H1408       H  0.76441652  0.46959797  0.12931402     0.08900
H1409       H  0.79156279  0.47500658  0.14868919     0.08000
N1410       N  0.77107589  0.42796028  0.12782124    -0.35900
N1411       N  0.77729142  0.42046058  0.13164596    -0.28100
C1412       C  0.77446403  0.41113902  0.12741698    -0.03300
C1413       C  0.76601298  0.41276173  0.12069958     0.05300
C1414       C  0.76411007  0.42353157  0.12113361     0.03400
H1415       H  0.77841807  0.40372844  0.12897900     0.08500
H1416       H  0.75838299  0.42791957  0.11657146     0.07300
N1417       N  0.71551150  0.34788055  0.07645589    -0.27000
N1418       N  0.71604002  0.34391510  0.06683507    -0.34900
C1419       C  0.70957658  0.33557972  0.06613304     0.01300
C1420       C  0.70465883  0.33413540  0.07576991     0.07300
C1421       C  0.70859286  0.34212359  0.08217138    -0.05800
H1422       H  0.70859398  0.33083724  0.05909934     0.08000
H1423       H  0.70687124  0.34342370  0.09042995     0.09200
Cu1424     Cu  0.72573640  0.34960437  0.05505437     0.44200
Cu1425     Cu  0.72509060  0.36041923  0.08099299     0.42000
Cu1426     Cu  0.74424636  0.36994626  0.06060128     0.43900
N1427       N  0.73528858  0.35617927  0.04362532    -0.34400
N1428       N  0.74208355  0.36387082  0.04543322    -0.28700
C1429       C  0.74660881  0.36666899  0.03619523    -0.04800
C1430       C  0.74243101  0.36035976  0.02824215     0.07400
C1431       C  0.73533584  0.35379987  0.03331477     0.01200
H1432       H  0.75250490  0.37278546  0.03535567     0.08900
H1433       H  0.73033650  0.34788654  0.02971566     0.08000
N1434       N  0.74390135  0.37470417  0.07639544    -0.35900
N1435       N  0.73681344  0.37166432  0.08347287    -0.28100
C1436       C  0.73870576  0.37668364  0.09263904    -0.03300
C1437       C  0.74748530  0.38302357  0.09135816     0.05300
C1438       C  0.75056444  0.38159650  0.08097600     0.03400
H1439       H  0.73410486  0.37567697  0.09976380     0.08500
H1440       H  0.75704367  0.38546382  0.07697384     0.07300
N1441       N  0.80712123  0.85806993  0.43319554    -0.27000
N1442       N  0.81011702  0.85776758  0.44317657    -0.34900
C1443       C  0.81875152  0.85169806  0.44406022     0.01300
C1444       C  0.82140966  0.84790884  0.43418214     0.07300
C1445       C  0.81377851  0.85200393  0.42745515    -0.05800
H1446       H  0.82263181  0.84989936  0.45144607     0.08000
H1447       H  0.81314467  0.85070212  0.41904408     0.09200
Cu1448     Cu  0.80204318  0.86486957  0.45546839     0.44200
Cu1449     Cu  0.79410386  0.86705204  0.42840224     0.42000
Cu1450     Cu  0.77807097  0.87857617  0.45020168     0.43900
N1451       N  0.79258203  0.87105146  0.46726081    -0.34400
N1452       N  0.78352799  0.87590383  0.46547039    -0.28700
C1453       C  0.77925798  0.87878869  0.47479388    -0.04800
C1454       C  0.78600928  0.87559278  0.48280905     0.07400
C1455       C  0.79437207  0.87076006  0.47769463     0.01200
H1456       H  0.77194210  0.88311606  0.47564805     0.08900
H1457       H  0.80125702  0.86722976  0.48130896     0.08000
N1458       N  0.77541876  0.88114830  0.43417472    -0.35900
N1459       N  0.78125652  0.87727813  0.42639671    -0.28100
C1460       C  0.77767649  0.88119046  0.41718058    -0.03300
C1461       C  0.76917420  0.88777628  0.41923616     0.05300
C1462       C  0.76793979  0.88748677  0.43007635     0.03400
H1463       H  0.78103426  0.87937782  0.40954062     0.08500
H1464       H  0.76221491  0.89184167  0.43469107     0.07300
N1465       N  0.70856664  0.92726403  0.35837682    -0.27000
N1466       N  0.70791739  0.93723325  0.35536237    -0.34900
C1467       C  0.70091258  0.93810009  0.34750536     0.01300
C1468       C  0.69690688  0.92821452  0.34530988     0.07300
C1469       C  0.70183812  0.92148253  0.35243070    -0.05800
H1470       H  0.69906988  0.94540156  0.34347250     0.08000
H1471       H  0.70095869  0.91300111  0.35292044     0.09200
Cu1472     Cu  0.71689311  0.94940478  0.36130689     0.44200
Cu1473     Cu  0.71952190  0.92252820  0.36984174     0.42000
Cu1474     Cu  0.73754620  0.94424572  0.37898856     0.43900
N1475       N  0.72584799  0.96126216  0.36787661    -0.34400
N1476       N  0.73362669  0.95953824  0.37456378    -0.28700
C1477       C  0.73737912  0.96891434  0.37795980    -0.04800
C1478       C  0.73161426  0.97690066  0.37311431     0.07400
C1479       C  0.72440978  0.97168120  0.36677931     0.01200
H1480       H  0.74347273  0.96980768  0.38386134     0.08900
H1481       H  0.71836396  0.97519926  0.36188414     0.08000
N1482       N  0.73873853  0.92841818  0.38316880    -0.35900
N1483       N  0.73217361  0.92075299  0.38039250    -0.28100
C1484       C  0.73520443  0.91176774  0.38524678    -0.03300
C1485       C  0.74410791  0.91388414  0.39124777     0.05300
C1486       C  0.74612880  0.92447518  0.38966789     0.03400
H1487       H  0.73129307  0.90422723  0.38436991     0.08500
H1488       H  0.75239772  0.92906806  0.39320328     0.07300
N1489       N  0.57537464  0.85065725  0.21185262    -0.27000
N1490       N  0.56529444  0.84807198  0.21125820    -0.34900
C1491       C  0.56416788  0.83969320  0.20491187     0.01300
C1492       C  0.57400982  0.83674449  0.20127356     0.07300
C1493       C  0.58097501  0.84395276  0.20571732    -0.05800
H1494       H  0.55666944  0.83611164  0.20294664     0.08000
H1495       H  0.58945104  0.84419626  0.20469805     0.09200
Cu1496     Cu  0.55330594  0.85608315  0.21870951     0.44200
Cu1497     Cu  0.58037484  0.86298575  0.22159931     0.42000
Cu1498     Cu  0.55876426  0.87624907  0.23710238     0.43900
N1499       N  0.54165190  0.86502855  0.22560053    -0.34400
N1500       N  0.54343323  0.87252761  0.23260624    -0.28700
C1501       C  0.53412866  0.87697797  0.23531505    -0.04800
C1502       C  0.52621881  0.87209035  0.22952957     0.07400
C1503       C  0.53129722  0.86451226  0.22356138     0.01200
H1504       H  0.53322253  0.88343698  0.24083016     0.08900
H1505       H  0.52773024  0.85901079  0.21809241     0.08000
N1506       N  0.57488404  0.87881159  0.23896473    -0.35900
N1507       N  0.58252542  0.87448439  0.23325399    -0.28100
C1508       C  0.59185299  0.87844364  0.23647685    -0.03300
C1509       C  0.59000822  0.88541517  0.24468767     0.05300
C1510       C  0.57918121  0.88548129  0.24600575     0.03400
H1511       H  0.59943632  0.87631016  0.23316775     0.08500
H1512       H  0.57470818  0.89022116  0.25153218     0.07300
N1513       N  0.65194122  0.92681200  0.30170212    -0.27000
N1514       N  0.65553978  0.93660048  0.30166201    -0.34900
C1515       C  0.66352507  0.93745350  0.30851915     0.01300
C1516       C  0.66510901  0.92777125  0.31325073     0.07300
C1517       C  0.65758858  0.92114528  0.30877323    -0.05800
H1518       H  0.66794192  0.94463199  0.30990767     0.08000
H1519       H  0.65656232  0.91279669  0.31025332     0.09200
Cu1520     Cu  0.64979051  0.94859150  0.29232962     0.44200
Cu1521     Cu  0.64006870  0.92216024  0.29120969     0.42000
Cu1522     Cu  0.63045702  0.94371660  0.27310094     0.43900
N1523       N  0.64303418  0.96050989  0.28359928    -0.34400
N1524       N  0.63572008  0.95891110  0.27637439    -0.28700
C1525       C  0.63239447  0.96835244  0.27271199    -0.04800
C1526       C  0.63792405  0.97622910  0.27797617     0.07400
C1527       C  0.64457992  0.97090460  0.28479076     0.01200
H1528       H  0.62607065  0.96940025  0.26707983     0.08900
H1529       H  0.64993296  0.97434898  0.29047828     0.08000
N1530       N  0.62649162  0.92780485  0.27206988    -0.35900
N1531       N  0.62952201  0.92022970  0.27862845    -0.28100
C1532       C  0.62496651  0.91109780  0.27562149    -0.03300
C1533       C  0.61897516  0.91297778  0.26668258     0.05300
C1534       C  0.62009389  0.92364376  0.26470503     0.03400
H1535       H  0.62599782  0.90361525  0.27960710     0.08500
H1536       H  0.61630281  0.92813665  0.25851538     0.07300
N1537       N  0.86286484  0.57138689  0.20436335    -0.27000
N1538       N  0.86153764  0.56121249  0.20255353    -0.34900
C1539       C  0.85480414  0.55989258  0.19452162     0.01300
C1540       C  0.85155778  0.56969776  0.19098363     0.07300
C1541       C  0.85685167  0.57687074  0.19744320    -0.05800
H1542       H  0.85228547  0.55227581  0.19158731     0.08000
H1543       H  0.85646071  0.58539278  0.19707986     0.09200
Cu1544     Cu  0.86861678  0.54938580  0.21115025     0.44200
Cu1545     Cu  0.87297561  0.57639969  0.21646885     0.42000
Cu1546     Cu  0.88468250  0.55463742  0.23336393     0.43900
N1547       N  0.87568175  0.53760899  0.21982107    -0.34400
N1548       N  0.88161346  0.53925552  0.22821859    -0.28700
C1549       C  0.88508954  0.52982104  0.23181503    -0.04800
C1550       C  0.88123879  0.52196332  0.22518456     0.07400
C1551       C  0.87522588  0.52724186  0.21778717     0.01200
H1552       H  0.89022531  0.52877552  0.23854874     0.08900
H1553       H  0.87080493  0.52379905  0.21134916     0.08000
N1554       N  0.88709445  0.57086450  0.23539063    -0.35900
N1555       N  0.88328391  0.57846911  0.22927383    -0.28100
C1556       C  0.88717131  0.58779775  0.23259667    -0.03300
C1557       C  0.89365682  0.58603148  0.24121196     0.05300
C1558       C  0.89334992  0.57522964  0.24279243     0.03400
H1559       H  0.88542387  0.59532934  0.22896936     0.08500
H1560       H  0.89767455  0.57080969  0.24867796     0.07300
N1561       N  0.93482981  0.64854110  0.29903293    -0.27000
N1562       N  0.94494443  0.65096294  0.29981147    -0.34900
C1563       C  0.94636264  0.65770880  0.30781679     0.01300
C1564       C  0.93670066  0.65971932  0.31241386     0.07300
C1565       C  0.92948047  0.65388710  0.30657420    -0.05800
H1566       H  0.95391588  0.66099297  0.31007103     0.08000
H1567       H  0.92104697  0.65341839  0.30783742     0.09200
Cu1568     Cu  0.95667316  0.64528341  0.29015786     0.44200
Cu1569     Cu  0.92950205  0.63765893  0.28778350     0.42000
Cu1570     Cu  0.95091446  0.62702858  0.27019384     0.43900
N1571       N  0.96813722  0.63923360  0.28041416    -0.34400
N1572       N  0.96622389  0.63221510  0.27296935    -0.28700
C1573       C  0.97541456  0.62965242  0.26821761    -0.04800
C1574       C  0.98342853  0.63545629  0.27293854     0.07400
C1575       C  0.97847381  0.64144006  0.28059555     0.01200
H1576       H  0.97617050  0.62411998  0.26175714     0.08900
H1577       H  0.98214680  0.64690593  0.28603130     0.08000
N1578       N  0.93502358  0.62294233  0.26949894    -0.35900
N1579       N  0.92742679  0.62638610  0.27583424    -0.28100
C1580       C  0.91832681  0.62153237  0.27317627    -0.03300
C1581       C  0.92029753  0.61482563  0.26474808     0.05300
C1582       C  0.93092353  0.61599554  0.26261949     0.03400
H1583       H  0.91081046  0.62289409  0.27700278     0.08500
H1584       H  0.93541593  0.61193401  0.25659125     0.07300
N1585       N  0.86313562  0.80100239  0.43097513    -0.27000
N1586       N  0.86355683  0.80401795  0.44094047    -0.34900
C1587       C  0.85748853  0.81258972  0.44229910     0.01300
C1588       C  0.85284810  0.81513153  0.43277056     0.07300
C1589       C  0.85659793  0.80759230  0.42571096    -0.05800
H1590       H  0.85626325  0.81650289  0.44979212     0.08000
H1591       H  0.85477482  0.80698469  0.41739736     0.09200
Cu1592     Cu  0.87132314  0.79575092  0.45261259     0.44200
Cu1593     Cu  0.87181929  0.78796961  0.42571044     0.42000
Cu1594     Cu  0.88323895  0.77089214  0.44696091     0.43900
N1595       N  0.87641474  0.78552695  0.46421155    -0.34400
N1596       N  0.88056563  0.77614163  0.46236541    -0.28700
C1597       C  0.88225515  0.77126939  0.47169577    -0.04800
C1598       C  0.87893204  0.77795875  0.47976901     0.07400
C1599       C  0.87533702  0.78690890  0.47464065     0.01200
H1600       H  0.88567191  0.76348684  0.47250859     0.08900
H1601       H  0.87183880  0.79383511  0.47822189     0.08000
N1602       N  0.88557258  0.76877796  0.43075957    -0.35900
N1603       N  0.88182766  0.77503578  0.42325096    -0.28100
C1604       C  0.88579538  0.77189586  0.41389085    -0.03300
C1605       C  0.89214329  0.76316336  0.41554115     0.05300
C1606       C  0.89183662  0.76142032  0.42630533     0.03400
H1607       H  0.88431270  0.77579820  0.40644616     0.08500
H1608       H  0.89624388  0.75553119  0.43064317     0.07300
N1609       N  0.93497105  0.70619664  0.35445546    -0.27000
N1610       N  0.94512929  0.70460074  0.35272377    -0.34900
C1611       C  0.94638264  0.69639154  0.34619039     0.01300
C1612       C  0.93655286  0.69256692  0.34351350     0.07300
C1613       C  0.92942624  0.69898869  0.34887296    -0.05800
H1614       H  0.95395102  0.69342591  0.34354911     0.08000
H1615       H  0.92091432  0.69830885  0.34892003     0.09200
Cu1616     Cu  0.95709400  0.71338260  0.35918849     0.44200
Cu1617     Cu  0.92991575  0.71798885  0.36487128     0.42000
Cu1618     Cu  0.95189991  0.73362238  0.37743776     0.43900
N1619       N  0.96890339  0.72216093  0.36593491    -0.34400
N1620       N  0.96723629  0.72970019  0.37292213    -0.28700
C1621       C  0.97664837  0.73373165  0.37588082    -0.04800
C1622       C  0.98455213  0.72842074  0.37039045     0.07400
C1623       C  0.97927978  0.72118426  0.36417074     0.01200
H1624       H  0.97763116  0.74013247  0.38144352     0.08900
H1625       H  0.98274742  0.71549629  0.35881760     0.08000
N1626       N  0.93578861  0.73563979  0.38026581    -0.35900
N1627       N  0.92801227  0.73010029  0.37598177    -0.28100
C1628       C  0.91877230  0.73349631  0.38004254    -0.03300
C1629       C  0.92078834  0.74163079  0.38707935     0.05300
C1630       C  0.93166188  0.74269751  0.38704553     0.03400
H1631       H  0.91113039  0.73027064  0.37802069     0.08500
H1632       H  0.93630421  0.74801979  0.39183801     0.07300
N1633       N  0.57602109  0.79478957  0.15470112    -0.27000
N1634       N  0.56598239  0.79499363  0.15752013    -0.34900
C1635       C  0.56476965  0.80143873  0.16581384     0.01300
C1636       C  0.57448372  0.80563503  0.16839778     0.07300
C1637       C  0.58149735  0.80127059  0.16116471    -0.05800
H1638       H  0.55731123  0.80297659  0.16969260     0.08000
H1639       H  0.58994484  0.80247055  0.16081975     0.09200
Cu1640     Cu  0.55416746  0.78662599  0.15014533     0.44200
Cu1641     Cu  0.58121269  0.78492237  0.14254632     0.42000
Cu1642     Cu  0.55994332  0.76898916  0.12930891     0.43900
N1643       N  0.54256704  0.77872941  0.14195452    -0.34400
N1644       N  0.54444149  0.77232287  0.13394828    -0.28700
C1645       C  0.53511590  0.76865071  0.13028797    -0.04800
C1646       C  0.52707351  0.77294497  0.13641871     0.07400
C1647       C  0.53214418  0.77924618  0.14371793     0.01200
H1648       H  0.53427189  0.76307860  0.12387383     0.08900
H1649       H  0.52850148  0.78390145  0.14988897     0.08000
N1650       N  0.57620849  0.76725468  0.12688292    -0.35900
N1651       N  0.58368912  0.77311351  0.13127353    -0.28100
C1652       C  0.59314865  0.76994167  0.12757353    -0.03300
C1653       C  0.59160521  0.76159731  0.12069443     0.05300
C1654       C  0.58077838  0.76013952  0.12042915     0.03400
H1655       H  0.60062930  0.77339269  0.12981473     0.08500
H1656       H  0.57649965  0.75446778  0.11569572     0.07300
N1657       N  0.65116787  0.70172373  0.07996093    -0.27000
N1658       N  0.65163671  0.69915095  0.06986459    -0.34900
C1659       C  0.65741972  0.69036047  0.06872038     0.01300
C1660       C  0.66086368  0.68715188  0.07853746     0.07300
C1661       C  0.65686755  0.69461544  0.08552661    -0.05800
H1662       H  0.65928811  0.68675305  0.06120637     0.08000
H1663       H  0.65799552  0.69483880  0.09398250     0.09200
Cu1664     Cu  0.64533983  0.70800171  0.05773756     0.44200
Cu1665     Cu  0.64247042  0.71484548  0.08506200     0.42000
Cu1666     Cu  0.63176812  0.73173080  0.06331479     0.43900
N1667       N  0.64024436  0.71813336  0.04604847    -0.34400
N1668       N  0.63507691  0.72698806  0.04794791    -0.28700
C1669       C  0.63308691  0.73186257  0.03869068    -0.04800
C1670       C  0.63742929  0.72582332  0.03064477     0.07400
C1671       C  0.64181820  0.71715821  0.03562678     0.01200
H1672       H  0.62905817  0.73935441  0.03789843     0.08900
H1673       H  0.64590621  0.71061763  0.03194638     0.08000
N1674       N  0.62911621  0.73410758  0.07935438    -0.35900
N1675       N  0.63258077  0.72797848  0.08709336    -0.28100
C1676       C  0.62832855  0.73135939  0.09625003    -0.03300
C1677       C  0.62208603  0.74010949  0.09419949     0.05300
C1678       C  0.62277201  0.74159464  0.08342348     0.03400
H1679       H  0.62948994  0.72757624  0.10381256     0.08500
H1680       H  0.61849770  0.74735137  0.07878559     0.07300
N1681       N  0.80297177  0.57120687  0.15115809    -0.27000
N1682       N  0.80417373  0.56104613  0.15320356    -0.34900
C1683       C  0.81286739  0.55959456  0.15902934     0.01300
C1684       C  0.81758423  0.56926176  0.16078175     0.07300
C1685       C  0.81100110  0.57653144  0.15579408    -0.05800
H1686       H  0.81550110  0.55198833  0.16188692     0.08000
H1687       H  0.81206527  0.58499841  0.15543814     0.09200
Cu1688     Cu  0.79432233  0.54919491  0.14804273     0.44200
Cu1689     Cu  0.79032245  0.57653863  0.14178285     0.42000
Cu1690     Cu  0.77269095  0.55469471  0.13183776     0.43900
N1691       N  0.78476294  0.53745707  0.14212722    -0.34400
N1692       N  0.77663500  0.53931304  0.13590478    -0.28700
C1693       C  0.77206828  0.53003061  0.13334762    -0.04800
C1694       C  0.77764417  0.52198458  0.13829613     0.07400
C1695       C  0.78560800  0.52704287  0.14378352     0.01200
H1696       H  0.76508677  0.52924092  0.12850576     0.08900
H1697       H  0.79160636  0.52340550  0.14865127     0.08000
N1698       N  0.77102221  0.57066665  0.12845367    -0.35900
N1699       N  0.77714808  0.57846154  0.13180608    -0.28100
C1700       C  0.77381500  0.58753566  0.12730895    -0.03300
C1701       C  0.76521954  0.58534376  0.12085309     0.05300
C1702       C  0.76374021  0.57457102  0.12182002     0.03400
H1703       H  0.77768675  0.59508023  0.12829175     0.08500
H1704       H  0.75791553  0.56981644  0.11777755     0.07300
N1705       N  0.70668732  0.64441605  0.07826598    -0.27000
N1706       N  0.70340187  0.64471038  0.06838015    -0.34900
C1707       C  0.69487083  0.65094411  0.06769821     0.01300
C1708       C  0.69265891  0.65494013  0.07759653     0.07300
C1709       C  0.70032983  0.65064638  0.08415618    -0.05800
H1710       H  0.69074313  0.65269481  0.06043491     0.08000
H1711       H  0.70117872  0.65189180  0.09255620     0.09200
Cu1712     Cu  0.71100031  0.63739758  0.05596160     0.44200
Cu1713     Cu  0.71961178  0.63516807  0.08272181     0.42000
Cu1714     Cu  0.73458850  0.62290902  0.06047525     0.43900
N1715       N  0.71997795  0.63110780  0.04390763    -0.34400
N1716       N  0.72888114  0.62589019  0.04536792    -0.28700
C1717       C  0.73280273  0.62305602  0.03587304    -0.04800
C1718       C  0.72590418  0.62656652  0.02811195     0.07400
C1719       C  0.71796340  0.63174954  0.03354818     0.01200
H1720       H  0.74004921  0.61868127  0.03471074     0.08900
H1721       H  0.71128729  0.63590868  0.03022988     0.08000
N1722       N  0.73718185  0.61993308  0.07643626    -0.35900
N1723       N  0.73189801  0.62424296  0.08437286    -0.28100
C1724       C  0.73529917  0.61992144  0.09347343    -0.03300
C1725       C  0.74297626  0.61245477  0.09117925     0.05300
C1726       C  0.74401960  0.61279012  0.08030194     0.03400
H1727       H  0.73213421  0.62180237  0.10117965     0.08500
H1728       H  0.74929621  0.60811037  0.07548383     0.07300
N1729       N  0.21486873  0.15741018  0.43082499    -0.27000
N1730       N  0.21629370  0.16204162  0.44005268    -0.34900
C1731       C  0.21031863  0.17075174  0.44058996     0.01300
C1732       C  0.20472911  0.17171829  0.43129182     0.07300
C1733       C  0.20778447  0.16308961  0.42523375    -0.05800
H1734       H  0.20989473  0.17590470  0.44738986     0.08000
H1735       H  0.20517739  0.16115928  0.41734211     0.09200
Cu1736     Cu  0.22562303  0.15616666  0.45197846     0.44200
Cu1737     Cu  0.22308218  0.14370564  0.42676340     0.42000
Cu1738     Cu  0.23930034  0.13201396  0.44840984     0.43900
N1739       N  0.23323515  0.14857969  0.46415372    -0.34400
N1740       N  0.23819846  0.13947764  0.46308098    -0.28700
C1741       C  0.24146178  0.13624838  0.47268712    -0.04800
C1742       C  0.23846163  0.14377530  0.48011471     0.07400
C1743       C  0.23317911  0.15140513  0.47435302     0.01200
H1744       H  0.24548469  0.12886450  0.47419347     0.08900
H1745       H  0.22903888  0.15823195  0.47738795     0.08000
N1746       N  0.23883071  0.12654603  0.43283724    -0.35900
N1747       N  0.23306926  0.13066827  0.42515015    -0.28100
C1748       C  0.23491234  0.12523222  0.41619447    -0.03300
C1749       C  0.24208139  0.11723123  0.41830810     0.05300
C1750       C  0.24443536  0.11839807  0.42893397     0.03400
H1751       H  0.23127997  0.12698590  0.40867463     0.08500
H1752       H  0.25003573  0.11383949  0.43348164     0.07300
N1753       N  0.29778785  0.07539902  0.35576718    -0.27000
N1754       N  0.30035663  0.06538465  0.35430695    -0.34900
C1755       C  0.30774017  0.06471702  0.34675126     0.01300
C1756       C  0.31010204  0.07477480  0.34328103     0.07300
C1757       C  0.30365468  0.08141718  0.34917744    -0.05800
H1758       H  0.31111392  0.05739403  0.34391448     0.08000
H1759       H  0.30303711  0.08990932  0.34849408     0.09200
Cu1760     Cu  0.29382179  0.05281078  0.36240939     0.44200
Cu1761     Cu  0.28591083  0.07976167  0.36641063     0.42000
Cu1762     Cu  0.27282222  0.05733559  0.38039352     0.43900
N1763       N  0.28685768  0.04079868  0.37099041    -0.34400
N1764       N  0.27888767  0.04228203  0.37755021    -0.28700
C1765       C  0.27605354  0.03287201  0.38167721    -0.04800
C1766       C  0.28271198  0.02516305  0.37760976     0.07400
C1767       C  0.28938968  0.03050548  0.37081397     0.01200
H1768       H  0.26970903  0.03173609  0.38728194     0.08900
H1769       H  0.29553074  0.02712913  0.36592463     0.08000
N1770       N  0.26907809  0.07327132  0.38239198    -0.35900
N1771       N  0.27374499  0.08126206  0.37752357    -0.28100
C1772       C  0.26974677  0.09037504  0.38130615    -0.03300
C1773       C  0.26216342  0.08807241  0.38889343     0.05300
C1774       C  0.26202197  0.07712573  0.38933917     0.03400
H1775       H  0.27258665  0.09810238  0.37905895     0.08500
H1776       H  0.25731051  0.07226907  0.39454680     0.07300
N1777       N  0.43281654  0.15521299  0.21440626    -0.27000
N1778       N  0.44255976  0.15892783  0.21445882    -0.34900
C1779       C  0.44323262  0.16718459  0.20788699     0.01300
C1780       C  0.43348234  0.16881515  0.20330061     0.07300
C1781       C  0.42700763  0.16105283  0.20761522    -0.05800
H1782       H  0.45042401  0.17152048  0.20632067     0.08000
H1783       H  0.41872224  0.15978648  0.20599609     0.09200
Cu1784     Cu  0.45494463  0.15229884  0.22265203     0.44200
Cu1785     Cu  0.42856667  0.14231823  0.22386834     0.42000
Cu1786     Cu  0.45092604  0.13013520  0.23904423     0.43900
N1787       N  0.46726616  0.14421434  0.22953797    -0.34400
N1788       N  0.46598825  0.13586997  0.23563069    -0.28700
C1789       C  0.47559379  0.13207863  0.23826312    -0.04800
C1790       C  0.48327082  0.13844439  0.23363890     0.07400
C1791       C  0.47760422  0.14596569  0.22807917     0.01200
H1792       H  0.47689303  0.12510212  0.24301071     0.08900
H1793       H  0.48070473  0.15198182  0.22288304     0.08000
N1794       N  0.43503675  0.12593306  0.24039184    -0.35900
N1795       N  0.42714810  0.12995868  0.23480492    -0.28100
C1796       C  0.41811912  0.12508248  0.23764665    -0.03300
C1797       C  0.42042016  0.11776254  0.24541823     0.05300
C1798       C  0.43117700  0.11854965  0.24699087     0.03400
H1799       H  0.41041229  0.12687918  0.23444209     0.08500
H1800       H  0.43588176  0.11402545  0.25249323     0.07300
N1801       N  0.35667014  0.07652535  0.30145711    -0.27000
N1802       N  0.35497677  0.06639244  0.30329797    -0.34900
C1803       C  0.34673130  0.06533871  0.30983940     0.01300
C1804       C  0.34291701  0.07525026  0.31230656     0.07300
C1805       C  0.34948432  0.08222837  0.30695403    -0.05800
H1806       H  0.34360791  0.05783977  0.31248182     0.08000
H1807       H  0.34884123  0.09074408  0.30676348     0.09200
Cu1808     Cu  0.36325224  0.05409881  0.29647333     0.44200
Cu1809     Cu  0.36834904  0.08140328  0.29078339     0.42000
Cu1810     Cu  0.38066396  0.05926907  0.27539134     0.43900
N1811       N  0.37090844  0.04219135  0.28835940    -0.34400
N1812       N  0.37713204  0.04392573  0.28018255    -0.28700
C1813       C  0.38082987  0.03457284  0.27662749    -0.04800
C1814       C  0.37674757  0.02662006  0.28297763     0.07400
C1815       C  0.37053923  0.03178672  0.29033130     0.01200
H1816       H  0.38637673  0.03366694  0.27019542     0.08900
H1817       H  0.36611779  0.02823112  0.29671545     0.08000
N1818       N  0.38422336  0.07526125  0.27365132    -0.35900
N1819       N  0.38011170  0.08311145  0.27922974    -0.28100
C1820       C  0.38474406  0.09221413  0.27622108    -0.03300
C1821       C  0.39211938  0.09001243  0.26841089     0.05300
C1822       C  0.39147814  0.07919798  0.26696645     0.03400
H1823       H  0.38277376  0.09988828  0.27941178     0.08500
H1824       H  0.39613356  0.07447149  0.26158041     0.07300
N1825       N  0.43203865  0.20881251  0.15504702    -0.27000
N1826       N  0.44207736  0.20842681  0.15784341    -0.34900
C1827       C  0.44309260  0.20260827  0.16660170     0.01300
C1828       C  0.43324000  0.19908189  0.16961121     0.07300
C1829       C  0.42636399  0.20304518  0.16202704    -0.05800
H1830       H  0.45053133  0.20098551  0.17046718     0.08000
H1831       H  0.41789490  0.20199596  0.16173889     0.09200
Cu1832     Cu  0.45427400  0.21559376  0.14986805     0.44200
Cu1833     Cu  0.42723212  0.21784387  0.14203017     0.42000
Cu1834     Cu  0.44934792  0.23277124  0.12878193     0.43900
N1835       N  0.46627686  0.22264314  0.14150398    -0.34400
N1836       N  0.46464675  0.22930307  0.13366763    -0.28700
C1837       C  0.47407467  0.23223388  0.12964170    -0.04800
C1838       C  0.48192319  0.22699933  0.13520344     0.07400
C1839       C  0.47667190  0.22103538  0.14265819     0.01200
H1840       H  0.47511652  0.23738557  0.12291492     0.08900
H1841       H  0.48014906  0.21571774  0.14836250     0.08000
N1842       N  0.43337385  0.23384069  0.12499999    -0.35900
N1843       N  0.42554674  0.22851413  0.12945811    -0.28100
C1844       C  0.41643334  0.23123508  0.12467717    -0.03300
C1845       C  0.41858292  0.23868049  0.11691105     0.05300
C1846       C  0.42942224  0.24004184  0.11736211     0.03400
H1847       H  0.40884395  0.22784829  0.12661168     0.08500
H1848       H  0.43415065  0.24523302  0.11250282     0.07300
N1849       N  0.36087050  0.29737030  0.07305022    -0.27000
N1850       N  0.36141187  0.30072307  0.06319366    -0.34900
C1851       C  0.35575880  0.30961068  0.06217735     0.01300
C1852       C  0.35140388  0.31212475  0.07185327     0.07300
C1853       C  0.35469280  0.30410251  0.07858480    -0.05800
H1854       H  0.35473128  0.31383450  0.05483067     0.08000
H1855       H  0.35285167  0.30330962  0.08688261     0.09200
Cu1856     Cu  0.36937011  0.29309161  0.05121545     0.44200
Cu1857     Cu  0.36913984  0.28391271  0.07795665     0.42000
Cu1858     Cu  0.38184352  0.26867752  0.05600612     0.43900
N1859       N  0.37635734  0.28435247  0.03939446    -0.34400
N1860       N  0.38079296  0.27505548  0.04094766    -0.28700
C1861       C  0.38430268  0.27130158  0.03161714    -0.04800
C1862       C  0.38191414  0.27866328  0.02384518     0.07400
C1863       C  0.37691762  0.28681872  0.02912832     0.01200
H1864       H  0.38839803  0.26387250  0.03062182     0.08900
H1865       H  0.37370487  0.29395970  0.02571481     0.08000
N1866       N  0.38378128  0.26570018  0.07201818    -0.35900
N1867       N  0.37947862  0.27112082  0.07986681    -0.28100
C1868       C  0.38358500  0.26762353  0.08903708    -0.03300
C1869       C  0.39090027  0.25975313  0.08686004     0.05300
C1870       C  0.39064859  0.25866586  0.07599605     0.03400
H1871       H  0.38178613  0.27095068  0.09669373     0.08500
H1872       H  0.39533504  0.25335030  0.07123071     0.07300
N1873       N  0.21392534  0.42844295  0.15456589    -0.27000
N1874       N  0.21284693  0.43859348  0.15672971    -0.34900
C1875       C  0.20600600  0.43980877  0.16470250     0.01300
C1876       C  0.20252176  0.42997054  0.16782719     0.07300
C1877       C  0.20760122  0.42289095  0.16114523    -0.05800
H1878       H  0.20368673  0.44735924  0.16796637     0.08000
H1879       H  0.20691449  0.41437765  0.16120999     0.09200
Cu1880     Cu  0.22061202  0.45059811  0.14899868     0.44200
Cu1881     Cu  0.22448558  0.42330641  0.14289264     0.42000
Cu1882     Cu  0.23954719  0.44499951  0.12932031     0.43900
N1883       N  0.22892271  0.46226720  0.14132338    -0.34400
N1884       N  0.23602480  0.46043437  0.13392081    -0.28700
C1885       C  0.24028173  0.46973981  0.13089984    -0.04800
C1886       C  0.23560241  0.47775102  0.13678729     0.07400
C1887       C  0.22846127  0.47265329  0.14327754     0.01200
H1888       H  0.24658530  0.47055328  0.12519593     0.08900
H1889       H  0.22340829  0.47622748  0.14917039     0.08000
N1890       N  0.24141211  0.42883236  0.12655742    -0.35900
N1891       N  0.23603590  0.42113144  0.13120034    -0.28100
C1892       C  0.23924130  0.41180706  0.12714790    -0.03300
C1893       C  0.24701992  0.41373834  0.11972342     0.05300
C1894       C  0.24817007  0.42457648  0.11953987     0.03400
H1895       H  0.23610206  0.40419140  0.12940115     0.08500
H1896       H  0.25342620  0.42907010  0.11452807     0.07300
N1897       N  0.30743764  0.35716259  0.07510439    -0.27000
N1898       N  0.31131760  0.35831713  0.06549049    -0.34900
C1899       C  0.31942321  0.35165013  0.06412010     0.01300
C1900       C  0.32081920  0.34587167  0.07326014     0.07300
C1901       C  0.31304819  0.34957852  0.08010938    -0.05800
H1902       H  0.32385722  0.35089970  0.05685653     0.08000
H1903       H  0.31165661  0.34706335  0.08814412     0.09200
Cu1904     Cu  0.30521476  0.36820222  0.05409129     0.44200
Cu1905     Cu  0.29464510  0.36628286  0.08044034     0.42000
Cu1906     Cu  0.28136124  0.38173909  0.05930029     0.43900
N1907       N  0.29691537  0.37602685  0.04249148    -0.34400
N1908       N  0.28777812  0.38074300  0.04420248    -0.28700
C1909       C  0.28384972  0.38407893  0.03489429    -0.04800
C1910       C  0.29091563  0.38129350  0.02697606     0.07400
C1911       C  0.29911741  0.37627551  0.03213709     0.01200
H1912       H  0.27637431  0.38810177  0.03396509     0.08900
H1913       H  0.30595178  0.37259828  0.02855690     0.08000
N1914       N  0.27731929  0.38219477  0.07523760    -0.35900
N1915       N  0.28206837  0.37685071  0.08286386    -0.28100
C1916       C  0.27772643  0.37967687  0.09217606    -0.03300
C1917       C  0.26979996  0.38704082  0.09033419     0.05300
C1918       C  0.26986829  0.38845784  0.07949544     0.03400
H1919       H  0.28025949  0.37670008  0.09976224     0.08500
H1920       H  0.26517247  0.39400687  0.07502225     0.07300
N1921       N  0.15507176  0.43025039  0.20880424    -0.27000
N1922       N  0.15799478  0.44022595  0.20800222    -0.34900
C1923       C  0.16616687  0.44096725  0.20133733     0.01300
C1924       C  0.16859924  0.43099217  0.19765857     0.07300
C1925       C  0.16136750  0.42432775  0.20252923    -0.05800
H1926       H  0.17023996  0.44824821  0.19949994     0.08000
H1927       H  0.16103877  0.41581162  0.20195722     0.09200
Cu1928     Cu  0.15139197  0.45249220  0.21640729     0.44200
Cu1929     Cu  0.14327301  0.42578465  0.21940857     0.42000
Cu1930     Cu  0.13274768  0.44770074  0.23653282     0.43900
N1931       N  0.14419771  0.46444909  0.22476538    -0.34400
N1932       N  0.13720474  0.46287950  0.23232000    -0.28700
C1933       C  0.13356364  0.47232003  0.23567331    -0.04800
C1934       C  0.13855895  0.48017560  0.22987003     0.07400
C1935       C  0.14524015  0.47482908  0.22307540     0.01200
H1936       H  0.12742374  0.47333049  0.24152124     0.08900
H1937       H  0.15036039  0.47823098  0.21714545     0.08000
N1938       N  0.12897080  0.43180642  0.23789242    -0.35900
N1939       N  0.13232697  0.42410659  0.23163858    -0.28100
C1940       C  0.12771494  0.41501674  0.23465027    -0.03300
C1941       C  0.12132860  0.41706090  0.24327474     0.05300
C1942       C  0.12228184  0.42777403  0.24507135     0.03400
H1943       H  0.12898856  0.40745103  0.23089031     0.08500
H1944       H  0.11819889  0.43237716  0.25099964     0.07300
N1945       N  0.07865693  0.35505746  0.29918685    -0.27000
N1946       N  0.06937330  0.35041973  0.29813065    -0.34900
C1947       C  0.06845214  0.34270989  0.30530297     0.01300
C1948       C  0.07754272  0.34240532  0.31129881     0.07300
C1949       C  0.08389115  0.35037916  0.30721524    -0.05800
H1950       H  0.06154062  0.33777280  0.30620588     0.08000
H1951       H  0.09176401  0.35249264  0.30974561     0.09200
Cu1952     Cu  0.05782785  0.35485754  0.28755761     0.44200
Cu1953     Cu  0.08341004  0.36725267  0.28913211     0.42000
Cu1954     Cu  0.06248529  0.37621909  0.27052677     0.43900
N1955       N  0.04602523  0.36156008  0.27858186    -0.34400
N1956       N  0.04757466  0.36985693  0.27248547    -0.28700
C1957       C  0.03820019  0.37319334  0.26873351    -0.04800
C1958       C  0.03041926  0.36651799  0.27256188     0.07400
C1959       C  0.03568794  0.35928621  0.27881811     0.01200
H1960       H  0.03710018  0.38010890  0.26384689     0.08900
H1961       H  0.03219561  0.35322113  0.28371278     0.08000
N1962       N  0.07813743  0.38089871  0.27006758    -0.35900
N1963       N  0.08559289  0.37801868  0.27680368    -0.28100
C1964       C  0.09468464  0.38280166  0.27404447    -0.03300
C1965       C  0.09288185  0.38879499  0.26507778     0.05300
C1966       C  0.08230195  0.38744230  0.26284436     0.03400
H1967       H  0.10210409  0.38185259  0.27815844     0.08500
H1968       H  0.07787289  0.39108505  0.25652310     0.07300
N1969       N  0.15892306  0.21411412  0.43163155    -0.27000
N1970       N  0.16320928  0.21485425  0.44109873    -0.34900
C1971       C  0.17196034  0.20893940  0.44147211     0.01300
C1972       C  0.17337065  0.20419108  0.43177262     0.07300
C1973       C  0.16486854  0.20751668  0.42570931    -0.05800
H1974       H  0.17680365  0.20794414  0.44842927     0.08000
H1975       H  0.16319436  0.20538371  0.41761730     0.09200
Cu1976     Cu  0.15684741  0.22314678  0.45352572     0.44200
Cu1977     Cu  0.14538699  0.22266394  0.42775968     0.42000
Cu1978     Cu  0.13321610  0.23754191  0.45020684     0.43900
N1979       N  0.14893284  0.22991618  0.46598353    -0.34400
N1980       N  0.14000825  0.23518703  0.46495998    -0.28700
C1981       C  0.13657510  0.23803674  0.47462592    -0.04800
C1982       C  0.14371551  0.23428218  0.48206524     0.07400
C1983       C  0.15145101  0.22923500  0.47622896     0.01200
H1984       H  0.12944538  0.24250413  0.47608577     0.08900
H1985       H  0.15827357  0.22506428  0.47922887     0.08000
N1986       N  0.12850976  0.23848308  0.43449262    -0.35900
N1987       N  0.13280369  0.23325356  0.42650972    -0.28100
C1988       C  0.12791815  0.23613206  0.41752504    -0.03300
C1989       C  0.12011360  0.24340547  0.41995369     0.05300
C1990       C  0.12078261  0.24473873  0.43077394     0.03400
H1991       H  0.12990698  0.23314006  0.40977743     0.08500
H1992       H  0.11617094  0.25007204  0.43559831     0.07300
N1993       N  0.07849777  0.30193744  0.35918855    -0.27000
N1994       N  0.06838859  0.30419065  0.35790579    -0.34900
C1995       C  0.06735514  0.31150711  0.35032982     0.01300
C1996       C  0.07727117  0.31408917  0.34664785     0.07300
C1997       C  0.08420230  0.30787356  0.35240738    -0.05800
H1998       H  0.05988031  0.31436293  0.34734462     0.08000
H1999       H  0.09265704  0.30728883  0.35134678     0.09200
Cu2000     Cu  0.05618519  0.29646629  0.36543372     0.44200
Cu2001     Cu  0.08345362  0.28999168  0.36943658     0.42000
Cu2002     Cu  0.06168094  0.27339212  0.38023640     0.43900
N2003       N  0.04450871  0.28730995  0.37214422    -0.34400
N2004       N  0.04636588  0.27852313  0.37742459    -0.28700
C2005       C  0.03708358  0.27441341  0.38065015    -0.04800
C2006       C  0.02903223  0.28101037  0.37721250     0.07400
C2007       C  0.03408050  0.28909150  0.37188302     0.01200
H2008       H  0.03629715  0.26735157  0.38538278     0.08900
H2009       H  0.03042470  0.29579096  0.36804751     0.08000
N2010       N  0.07764582  0.27128925  0.38337843    -0.35900
N2011       N  0.08542798  0.27727061  0.37978144    -0.28100
C2012       C  0.09454654  0.27401076  0.38418421    -0.03300
C2013       C  0.09243144  0.26554307  0.39082372     0.05300
C2014       C  0.08161936  0.26410467  0.39008277     0.03400
H2015       H  0.10206653  0.27785801  0.38297235     0.08500
H2016       H  0.07689573  0.25838198  0.39430874     0.07300
N2017       N  0.43118851  0.85276671  0.20996718    -0.27000
N2018       N  0.44133955  0.85084861  0.20846175    -0.34900
C2019       C  0.44248271  0.84255233  0.20200267     0.01300
C2020       C  0.43260973  0.83893390  0.19921244     0.07300
C2021       C  0.42556267  0.84566017  0.20430364    -0.05800
H2022       H  0.45000944  0.83926666  0.19963633     0.08000
H2023       H  0.41703821  0.84517080  0.20420898     0.09200
Cu2024     Cu  0.45352999  0.85889396  0.21555090     0.44200
Cu2025     Cu  0.42616256  0.86457945  0.22053620     0.42000
Cu2026     Cu  0.44819043  0.87630869  0.23643999     0.43900
N2027       N  0.46532619  0.86655766  0.22365162    -0.34400
N2028       N  0.46352194  0.87294594  0.23167433    -0.28700
C2029       C  0.47283203  0.87664191  0.23527687    -0.04800
C2030       C  0.48084318  0.87232438  0.22914747     0.07400
C2031       C  0.47573992  0.86600387  0.22186254     0.01200
H2032       H  0.47366638  0.88223773  0.24166961     0.08900
H2033       H  0.47934330  0.86128724  0.21571538     0.08000
N2034       N  0.43223131  0.87963334  0.23841291    -0.35900
N2035       N  0.42438361  0.87597214  0.23253609    -0.28100
C2036       C  0.41533033  0.88063742  0.23572146    -0.03300
C2037       C  0.41761124  0.88740211  0.24402846     0.05300
C2038       C  0.42835923  0.88649997  0.24552337     0.03400
H2039       H  0.40765333  0.87918386  0.23228481     0.08500
H2040       H  0.43309755  0.89078996  0.25118158     0.07300
N2041       N  0.36249462  0.93148551  0.30586299    -0.27000
N2042       N  0.36188106  0.94152052  0.30862227    -0.34900
C2043       C  0.35559989  0.94247379  0.31709618     0.01300
C2044       C  0.35190495  0.93257634  0.31981313     0.07300
C2045       C  0.35643932  0.92574725  0.31250622    -0.05800
H2046       H  0.35357202  0.94990191  0.32080378     0.08000
H2047       H  0.35541475  0.91728023  0.31205018     0.09200
Cu2048     Cu  0.36888100  0.95360014  0.30025891     0.44200
Cu2049     Cu  0.37171944  0.92678329  0.29302139     0.42000
Cu2050     Cu  0.38356897  0.94844267  0.27664940     0.43900
N2051       N  0.37519870  0.96537590  0.29097126    -0.34400
N2052       N  0.38050881  0.96378534  0.28213570    -0.28700
C2053       C  0.38334443  0.97328294  0.27815322    -0.04800
C2054       C  0.37974903  0.98113753  0.28495724     0.07400
C2055       C  0.37452146  0.97576160  0.29287925     0.01200
H2056       H  0.38780437  0.97439149  0.27095574     0.08900
H2057       H  0.37035578  0.97914952  0.29952256     0.08000
N2058       N  0.38595128  0.93219325  0.27426062    -0.35900
N2059       N  0.38189464  0.92458946  0.28020312    -0.28100
C2060       C  0.38555305  0.91520559  0.27677979    -0.03300
C2061       C  0.39222623  0.91689647  0.26828314     0.05300
C2062       C  0.39220397  0.92775684  0.26686423     0.03400
H2063       H  0.38347222  0.90768336  0.28024278     0.08500
H2064       H  0.39666797  0.93214388  0.26105399     0.07300
N2065       N  0.21043513  0.85257449  0.43247365    -0.27000
N2066       N  0.20908512  0.85053660  0.44260675    -0.34900
C2067       C  0.20108176  0.84372747  0.44380961     0.01300
C2068       C  0.19716991  0.84116299  0.43397556     0.07300
C2069       C  0.20330832  0.84690068  0.42690183    -0.05800
H2070       H  0.19827839  0.84085060  0.45134618     0.08000
H2071       H  0.20245175  0.84717189  0.41841568     0.09200
Cu2072     Cu  0.21796244  0.85703628  0.45458152     0.44200
Cu2073     Cu  0.22173353  0.86358897  0.42749028     0.42000
Cu2074     Cu  0.23800367  0.87578413  0.44911654     0.43900
N2075       N  0.22684848  0.86400383  0.46628058    -0.34400
N2076       N  0.23417902  0.87120156  0.46451359    -0.28700
C2077       C  0.23819158  0.87433447  0.47388382    -0.04800
C2078       C  0.23314410  0.86871068  0.48184521     0.07400
C2079       C  0.22606416  0.86223433  0.47668272     0.01200
H2080       H  0.24442240  0.88009619  0.47481893     0.08900
H2081       H  0.22063997  0.85668390  0.48025158     0.08000
N2082       N  0.23952340  0.87900170  0.43297348    -0.35900
N2083       N  0.23353761  0.87501316  0.42536717    -0.28100
C2084       C  0.23640522  0.87940586  0.41610288    -0.03300
C2085       C  0.24468820  0.88629544  0.41790952     0.05300
C2086       C  0.24644070  0.88583826  0.42867257     0.03400
H2087       H  0.23278082  0.87764627  0.40858028     0.08500
H2088       H  0.25217797  0.89034980  0.43310011     0.07300
N2089       N  0.30452246  0.93022657  0.36074499    -0.27000
N2090       N  0.30698053  0.94035171  0.36036860    -0.34900
C2091       C  0.31578891  0.94165530  0.35465960     0.01300
C2092       C  0.31917215  0.93189301  0.35118438     0.07300
C2093       C  0.31175369  0.92477946  0.35506460    -0.05800
H2094       H  0.31934384  0.94923267  0.35295305     0.08000
H2095       H  0.31168513  0.91631408  0.35392493     0.09200
Cu2096     Cu  0.29819115  0.95218709  0.36718195     0.44200
Cu2097     Cu  0.29144159  0.92507802  0.36950198     0.42000
Cu2098     Cu  0.27504657  0.94671682  0.38182451     0.43900
N2099       N  0.28900329  0.96389498  0.37368191    -0.34400
N2100       N  0.28027762  0.96215694  0.37910527    -0.28700
C2101       C  0.27628652  0.97156194  0.38221707    -0.04800
C2102       C  0.28290669  0.97953580  0.37853106     0.07400
C2103       C  0.29084962  0.97429605  0.37318333     0.01200
H2104       H  0.26925889  0.97249528  0.38697955     0.08900
H2105       H  0.29751095  0.97780153  0.36914480     0.08000
N2106       N  0.27257195  0.93046262  0.38370463    -0.35900
N2107       N  0.27846094  0.92283568  0.37957979    -0.28100
C2108       C  0.27494929  0.91346516  0.38321856    -0.03300
C2109       C  0.26637045  0.91521606  0.38978990     0.05300
C2110       C  0.26513423  0.92608282  0.38991770     0.03400
H2111       H  0.27849043  0.90591749  0.38134311     0.08500
H2112       H  0.25952008  0.93053307  0.39457560     0.07300
N2113       N  0.15379042  0.79584458  0.43311770    -0.27000
N2114       N  0.15489032  0.79795672  0.44326726    -0.34900
C2115       C  0.16134620  0.80623770  0.44448418     0.01300
C2116       C  0.16449260  0.80973110  0.43464961     0.07300
C2117       C  0.15967272  0.80284053  0.42757112    -0.05800
H2118       H  0.16362933  0.80945252  0.45205421     0.08000
H2119       H  0.16024431  0.80303394  0.41905743     0.09200
Cu2120     Cu  0.14755511  0.78991108  0.45534354     0.44200
Cu2121     Cu  0.14388483  0.78353536  0.42801392     0.42000
Cu2122     Cu  0.13158583  0.76785053  0.45001941     0.43900
N2123       N  0.13981341  0.78176361  0.46709124    -0.34400
N2124       N  0.13393959  0.77334547  0.46534359    -0.28700
C2125       C  0.13013577  0.76983274  0.47466223    -0.04800
C2126       C  0.13369807  0.77653113  0.48258843     0.07400
C2127       C  0.13989732  0.78390704  0.47744655     0.01200
H2128       H  0.12511511  0.76298827  0.47559495     0.08900
H2129       H  0.14438015  0.79025070  0.48098821     0.08000
N2130       N  0.12923447  0.76524884  0.43392966    -0.35900
N2131       N  0.13330312  0.77085855  0.42609363    -0.28100
C2132       C  0.12917103  0.76734759  0.41692391    -0.03300
C2133       C  0.12222321  0.75909995  0.41904164     0.05300
C2134       C  0.12253607  0.75806087  0.42992929     0.03400
H2135       H  0.13075197  0.77091704  0.40934147     0.08500
H2136       H  0.11798873  0.75262574  0.43469204     0.07300
N2137       N  0.07922859  0.70210206  0.35732772    -0.27000
N2138       N  0.06906305  0.70011362  0.35613551    -0.34900
C2139       C  0.06778718  0.69201587  0.34946489     0.01300
C2140       C  0.07758693  0.68860994  0.34609428     0.07300
C2141       C  0.08472957  0.69522407  0.35124685    -0.05800
H2142       H  0.06018802  0.68897827  0.34702657     0.08000
H2143       H  0.09324783  0.69497475  0.35072844     0.09200
Cu2144     Cu  0.05700999  0.70869796  0.36284424     0.44200
Cu2145     Cu  0.08435023  0.71419046  0.36754857     0.42000
Cu2146     Cu  0.06234307  0.73012627  0.37961146     0.43900
N2147       N  0.04531818  0.71860692  0.36823417    -0.34400
N2148       N  0.04709706  0.72668443  0.37456135    -0.28700
C2149       C  0.03785964  0.73165532  0.37646294    -0.04800
C2150       C  0.02998101  0.72650011  0.37085770     0.07400
C2151       C  0.03502328  0.71822062  0.36583638     0.01200
H2152       H  0.03696703  0.73856840  0.38140065     0.08900
H2153       H  0.03146477  0.71226506  0.36086036     0.08000
N2154       N  0.07831234  0.73156341  0.38329534    -0.35900
N2155       N  0.08618084  0.72611670  0.37903226    -0.28100
C2156       C  0.09528996  0.72920488  0.38362432    -0.03300
C2157       C  0.09304377  0.73680678  0.39120936     0.05300
C2158       C  0.08221060  0.73813314  0.39066129     0.03400
H2159       H  0.10297168  0.72595146  0.38177844     0.08500
H2160       H  0.07744971  0.74352950  0.39526480     0.07300
N2161       N  0.15885188  0.57501203  0.20997253    -0.27000
N2162       N  0.16224825  0.56514872  0.21030128    -0.34900
C2163       C  0.17107024  0.56423749  0.20454502     0.01300
C2164       C  0.17343104  0.57394897  0.20022201     0.07300
C2165       C  0.16549275  0.58065802  0.20380239    -0.05800
H2166       H  0.17536054  0.55693256  0.20340870     0.08000
H2167       H  0.16468491  0.58900167  0.20216719     0.09200
Cu2168     Cu  0.15477295  0.55295334  0.21798554     0.44200
Cu2169     Cu  0.14543042  0.57976469  0.21844870     0.42000
Cu2170     Cu  0.13313749  0.55817160  0.23449465     0.43900
N2171       N  0.14612833  0.54110220  0.22494726    -0.34400
N2172       N  0.13808541  0.54288057  0.23132451    -0.28700
C2173       C  0.13375778  0.53355318  0.23409114    -0.04800
C2174       C  0.13928826  0.52558864  0.22899493     0.07400
C2175       C  0.14713186  0.53068651  0.22337516     0.01200
H2176       H  0.12684976  0.53266576  0.23903659     0.08900
H2177       H  0.15304893  0.52710789  0.21835511     0.08000
N2178       N  0.12869058  0.57395872  0.23479363    -0.35900
N2179       N  0.13269060  0.58162850  0.22890207    -0.28100
C2180       C  0.12763563  0.59070999  0.23127719    -0.03300
C2181       C  0.12027629  0.58866553  0.23911790     0.05300
C2182       C  0.12114083  0.57797173  0.24107553     0.03400
H2183       H  0.12944795  0.59831222  0.22783417     0.08500
H2184       H  0.11663265  0.57341284  0.24671732     0.07300
N2185       N  0.07781798  0.64808964  0.29805119    -0.27000
N2186       N  0.06778069  0.65072043  0.29914894    -0.34900
C2187       C  0.06664939  0.65692272  0.30764687     0.01300
C2188       C  0.07642464  0.65836109  0.31224651     0.07300
C2189       C  0.08340062  0.65274075  0.30587982    -0.05800
H2190       H  0.05920678  0.66020134  0.31027304     0.08000
H2191       H  0.09182686  0.65191809  0.30699070     0.09200
Cu2192     Cu  0.05582217  0.64588302  0.28922712     0.44200
Cu2193     Cu  0.08266911  0.63790109  0.28589900     0.42000
Cu2194     Cu  0.06104910  0.62823447  0.26814435     0.43900
N2195       N  0.04419343  0.64038943  0.27926248    -0.34400
N2196       N  0.04590520  0.63358388  0.27155707    -0.28700
C2197       C  0.03660480  0.63123405  0.26693702    -0.04800
C2198       C  0.02874144  0.63704046  0.27189992     0.07400
C2199       C  0.03386630  0.64266520  0.27971435     0.01200
H2200       H  0.03563806  0.62573694  0.26047532     0.08900
H2201       H  0.03030780  0.64779696  0.28554583     0.08000
N2202       N  0.07699132  0.62456790  0.26654364    -0.35900
N2203       N  0.08464208  0.62771707  0.27294656    -0.28100
C2204       C  0.09378146  0.62330955  0.26971990    -0.03300
C2205       C  0.09183883  0.61729138  0.26079198     0.05300
C2206       C  0.08111005  0.61825455  0.25904968     0.03400
H2207       H  0.10130252  0.62436858  0.27361581     0.08500
H2208       H  0.07654451  0.61435066  0.25298599     0.07300
N2209       N  0.30555418  0.64749969  0.07727591    -0.27000
N2210       N  0.30903295  0.64717154  0.06745536    -0.34900
C2211       C  0.31745253  0.65346308  0.06646607     0.01300
C2212       C  0.31947174  0.65814860  0.07608348     0.07300
C2213       C  0.31173664  0.65419947  0.08282604    -0.05800
H2214       H  0.32159481  0.65482652  0.05912118     0.08000
H2215       H  0.31069889  0.65601025  0.09110184     0.09200
Cu2216     Cu  0.30191035  0.63917891  0.05527799     0.44200
Cu2217     Cu  0.29254843  0.63845710  0.08193575     0.42000
Cu2218     Cu  0.27797815  0.62590274  0.05939725     0.43900
N2219       N  0.29327877  0.63298944  0.04302171    -0.34400
N2220       N  0.28412564  0.62821299  0.04435183    -0.28700
C2221       C  0.28036033  0.62532578  0.03482832    -0.04800
C2222       C  0.28754324  0.62851630  0.02716480     0.07400
C2223       C  0.29563072  0.63330649  0.03271154     0.01200
H2224       H  0.27307539  0.62104695  0.03361734     0.08900
H2225       H  0.30267878  0.63689032  0.02947901     0.08000
N2226       N  0.27514455  0.62314523  0.07534296    -0.35900
N2227       N  0.28034685  0.62739753  0.08335067    -0.28100
C2228       C  0.27703915  0.62281294  0.09235894    -0.03300
C2229       C  0.26950070  0.61524395  0.08993284     0.05300
C2230       C  0.26840983  0.61584762  0.07907413     0.03400
H2231       H  0.28025327  0.62452712  0.10007603     0.08500
H2232       H  0.26324236  0.61119967  0.07413432     0.07300
N2233       N  0.21755796  0.57335443  0.15594033    -0.27000
N2234       N  0.21735314  0.56349678  0.15932628    -0.34900
C2235       C  0.21098849  0.56280214  0.16774223     0.01300
C2236       C  0.20693390  0.57270312  0.16987607     0.07300
C2237       C  0.21114905  0.57922942  0.16213562    -0.05800
H2238       H  0.20928598  0.55553808  0.17189948     0.08000
H2239       H  0.20978184  0.58760738  0.16118177     0.09200
Cu2240     Cu  0.22537424  0.55119894  0.15232239     0.44200
Cu2241     Cu  0.22713495  0.57771427  0.14326416     0.42000
Cu2242     Cu  0.24245160  0.55555403  0.13067829     0.43900
N2243       N  0.23298051  0.53908820  0.14457188    -0.34400
N2244       N  0.23937582  0.54045423  0.13646629    -0.28700
C2245       C  0.24280681  0.53090194  0.13317775    -0.04800
C2246       C  0.23840738  0.52320422  0.13966303     0.07400
C2247       C  0.23211554  0.52875918  0.14666884     0.01200
H2248       H  0.24807659  0.52964986  0.12657286     0.08900
H2249       H  0.22698002  0.52555135  0.15268410     0.08000
N2250       N  0.24379137  0.57154835  0.12692740    -0.35900
N2251       N  0.23838123  0.57936815  0.13130990    -0.28100
C2252       C  0.24136949  0.58853847  0.12683704    -0.03300
C2253       C  0.24905220  0.58644761  0.11932115     0.05300
C2254       C  0.25030768  0.57558203  0.11958018     0.03400
H2255       H  0.23798101  0.59613676  0.12876893     0.08500
H2256       H  0.25560659  0.57091188  0.11477058     0.07300
N2257       N  0.43216130  0.79467595  0.15479641    -0.27000
N2258       N  0.44181001  0.79401630  0.15869225    -0.34900
C2259       C  0.44253445  0.80022697  0.16723780     0.01300
C2260       C  0.43292092  0.80518413  0.16886124     0.07300
C2261       C  0.42648514  0.80142689  0.16080157    -0.05800
H2262       H  0.44969888  0.80135192  0.17174099     0.08000
H2263       H  0.41830402  0.80341123  0.15939450     0.09200
Cu2264     Cu  0.45400145  0.78548325  0.15187103     0.44200
Cu2265     Cu  0.42764520  0.78626566  0.14135932     0.42000
Cu2266     Cu  0.44923198  0.77122679  0.12821256     0.43900
N2267       N  0.46590820  0.77809838  0.14340719    -0.34400
N2268       N  0.46433501  0.77300190  0.13445614    -0.28700
C2269       C  0.47372531  0.76956907  0.13074085    -0.04800
C2270       C  0.48154531  0.77252925  0.13782410     0.07400
C2271       C  0.47625493  0.77801122  0.14567766     0.01200
H2272       H  0.47477737  0.76520527  0.12347629     0.08900
H2273       H  0.47970256  0.78192037  0.15243537     0.08000
N2274       N  0.43330502  0.77046281  0.12414991    -0.35900
N2275       N  0.42562542  0.77602309  0.12858755    -0.28100
C2276       C  0.41640247  0.77342570  0.12397167    -0.03300
C2277       C  0.41835407  0.76582825  0.11634701     0.05300
C2278       C  0.42912976  0.76411679  0.11673759     0.03400
H2279       H  0.40879268  0.77656585  0.12625972     0.08500
H2280       H  0.43362013  0.75860804  0.11199175     0.07300
N2281       N  0.35912125  0.70637450  0.07457882    -0.27000
N2282       N  0.35673653  0.70473789  0.06456004    -0.34900
C2283       C  0.35082472  0.69597880  0.06377612     0.01300
C2284       C  0.34930529  0.69193615  0.07378465     0.07300
C2285       C  0.35459081  0.69875788  0.08048687    -0.05800
H2286       H  0.34762651  0.69292280  0.05647546     0.08000
H2287       H  0.35516587  0.69818735  0.08898240     0.09200
Cu2288     Cu  0.36092254  0.71484309  0.05242948     0.44200
Cu2289     Cu  0.36869275  0.71885115  0.07933578     0.42000
Cu2290     Cu  0.37683496  0.73748733  0.05839846     0.43900
N2291       N  0.36503790  0.72609464  0.04132814    -0.34400
N2292       N  0.37107498  0.73435917  0.04333539    -0.28700
C2293       C  0.37247636  0.73986751  0.03433279    -0.04800
C2294       C  0.36695594  0.73482836  0.02633081     0.07400
C2295       C  0.36231504  0.72617774  0.03109803     0.01200
H2296       H  0.37708414  0.74702780  0.03369281     0.08900
H2297       H  0.35748102  0.72022694  0.02733820     0.08000
N2298       N  0.38154996  0.73841365  0.07411804    -0.35900
N2299       N  0.37883706  0.73159931  0.08156730    -0.28100
C2300       C  0.38375883  0.73424179  0.09060092    -0.03300
C2301       C  0.38978916  0.74317128  0.08878037     0.05300
C2302       C  0.38813592  0.74563181  0.07827961     0.03400
H2303       H  0.38299476  0.72997117  0.09795282     0.08500
H2304       H  0.39170466  0.75203728  0.07390077     0.07300
C2305       C  0.41062579  0.76015803  0.10962801     0.00100
C2306       C  0.41136739  0.74912441  0.10879397    -0.11800
C2307       C  0.40448345  0.74341122  0.10229159     0.02300
C2308       C  0.39680675  0.74878441  0.09626296     0.00000
C2309       C  0.39606980  0.75981721  0.09707326    -0.11700
C2310       C  0.40279351  0.76550914  0.10377618     0.02200
H2311       H  0.41736250  0.74494310  0.11324981     0.15200
H2312       H  0.39021406  0.76400461  0.09244151     0.15200
C2313       C  0.40180030  0.77685903  0.10411322     0.36800
C2314       C  0.40581190  0.73210927  0.10157754     0.36700
N2315       N  0.40098122  0.78595777  0.10436017    -0.43500
N2316       N  0.40689546  0.72305178  0.10101459    -0.43500
C2317       C  0.32791357  0.66608391  0.07787961     0.00100
C2318       C  0.33754024  0.66459511  0.07256067    -0.11800
C2319       C  0.34494200  0.67272884  0.07177439     0.02300
C2320       C  0.34283780  0.68259788  0.07644297     0.00000
C2321       C  0.33368909  0.68384370  0.08258361    -0.11700
C2322       C  0.32619501  0.67568384  0.08332054     0.02200
H2323       H  0.33908827  0.65717215  0.06857290     0.15200
H2324       H  0.33205992  0.69142845  0.08621544     0.15200
C2325       C  0.31648706  0.67773663  0.08892000     0.36800
C2326       C  0.35455689  0.67082611  0.06593904     0.36700
N2327       N  0.30872068  0.67944114  0.09342780    -0.43500
N2328       N  0.36227307  0.66926408  0.06129699    -0.43500
C2329       C  0.25433999  0.59397275  0.11200652     0.00100
C2330       C  0.25668488  0.59058754  0.10172197    -0.11800
C2331       C  0.26164790  0.59727557  0.09445405     0.02300
C2332       C  0.26426730  0.60775314  0.09735205     0.00000
C2333       C  0.26210184  0.61107977  0.10771477    -0.11700
C2334       C  0.25725718  0.60431530  0.11503355     0.02200
H2335       H  0.25463405  0.58263200  0.09931210     0.15200
H2336       H  0.26422180  0.61901135  0.11013962     0.15200
C2337       C  0.25593318  0.60803451  0.12571967     0.36800
C2338       C  0.26443111  0.59288001  0.08431504     0.36700
N2339       N  0.25495734  0.61103140  0.13429303    -0.43500
N2340       N  0.26666027  0.58925383  0.07623006    -0.43500
C2341       C  0.18256950  0.57601486  0.19317903     0.00100
C2342       C  0.19225639  0.57134210  0.19583299    -0.11800
C2343       C  0.20058076  0.57094620  0.18860668     0.02300
C2344       C  0.19929456  0.57520701  0.17839682     0.00000
C2345       C  0.18996291  0.58072279  0.17602641    -0.11700
C2346       C  0.18159056  0.58114393  0.18332805     0.02200
H2347       H  0.19318785  0.56760237  0.20347666     0.15200
H2348       H  0.18892749  0.58407276  0.16822252     0.15200
C2349       C  0.17181406  0.58605019  0.18016121     0.36800
C2350       C  0.21031925  0.56595628  0.19182693     0.36700
N2351       N  0.16397235  0.58997963  0.17760765    -0.43500
N2352       N  0.21812232  0.56196716  0.19440900    -0.43500
C2353       C  0.11334486  0.59629096  0.24470374     0.00100
C2354       C  0.10701919  0.60324960  0.23884468    -0.11800
C2355       C  0.09998170  0.61018642  0.24389986     0.02300
C2356       C  0.09937376  0.61038802  0.25503904     0.00000
C2357       C  0.10595602  0.60367229  0.26087635    -0.11700
C2358       C  0.11281204  0.59659846  0.25583593     0.02200
H2359       H  0.10743029  0.60312131  0.23029788     0.15200
H2360       H  0.10558617  0.60379655  0.26942603     0.15200
C2361       C  0.11942268  0.58993486  0.26229530     0.36800
C2362       C  0.09371030  0.61722177  0.23749700     0.36700
N2363       N  0.12472653  0.58458717  0.26746013    -0.43500
N2364       N  0.08870560  0.62287570  0.23235756    -0.43500
C2365       C  0.07928464  0.67982319  0.33842522     0.00100
C2366       C  0.07236450  0.67117033  0.33893946    -0.11800
C2367       C  0.07193150  0.66366975  0.33085722     0.02300
C2368       C  0.07847415  0.66471640  0.32190033     0.00000
C2369       C  0.08608360  0.67279405  0.32176782    -0.11700
C2370       C  0.08655177  0.68033370  0.32995158     0.02200
H2371       H  0.06697839  0.67044239  0.34555807     0.15200
H2372       H  0.09121824  0.67360909  0.31496628     0.15200
C2373       C  0.09401578  0.68888031  0.32903920     0.36800
C2374       C  0.06459433  0.65500140  0.33191173     0.36700
N2375       N  0.10004603  0.69570127  0.32828872    -0.43500
N2376       N  0.05873836  0.64804280  0.33277327    -0.43500
C2377       C  0.11500344  0.75332997  0.41167121     0.00100
C2378       C  0.10521818  0.74977945  0.41555043    -0.11800
C2379       C  0.09805538  0.74434347  0.40911249     0.02300
C2380       C  0.10055233  0.74229563  0.39843048     0.00000
C2381       C  0.11039756  0.74563737  0.39455888    -0.11700
C2382       C  0.11757289  0.75113661  0.40100998     0.02200
H2383       H  0.10304540  0.75133051  0.42367674     0.15200
H2384       H  0.11245410  0.74405822  0.38640101     0.15200
C2385       C  0.12760163  0.75410428  0.39650093     0.36800
C2386       C  0.08838595  0.74061268  0.41386572     0.36700
N2387       N  0.13561590  0.75645860  0.39279564    -0.43500
N2388       N  0.08066300  0.73763668  0.41773849    -0.43500
C2389       C  0.18796322  0.83415242  0.43209651     0.00100
C2390       C  0.17903199  0.83560595  0.43847264    -0.11800
C2391       C  0.17091606  0.82814239  0.43872754     0.02300
C2392       C  0.17169969  0.81880410  0.43265613     0.00000
C2393       C  0.18019635  0.81775090  0.42557328    -0.11700
C2394       C  0.18831079  0.82536372  0.42523553     0.02200
H2395       H  0.17855084  0.84248089  0.44356297     0.15200
H2396       H  0.18084055  0.81068124  0.42078780     0.15200
C2397       C  0.19726163  0.82356663  0.41841951     0.36800
C2398       C  0.16190053  0.83026128  0.44539127     0.36700
N2399       N  0.20443927  0.82213823  0.41294509    -0.43500
N2400       N  0.15468629  0.83198335  0.45073240    -0.43500
C2401       C  0.25022884  0.89309498  0.41013858     0.00100
C2402       C  0.24439679  0.90036732  0.40415650    -0.11800
C2403       C  0.24946391  0.90751054  0.39735077     0.02300
C2404       C  0.26058032  0.90733619  0.39631002     0.00000
C2405       C  0.26634287  0.89969191  0.40190922    -0.11700
C2406       C  0.26128738  0.89267648  0.40884051     0.02200
H2407       H  0.23587916  0.90064026  0.40499939     0.15200
H2408       H  0.27486074  0.89938458  0.40109512     0.15200
C2409       C  0.26758088  0.88495634  0.41437390     0.36800
C2410       C  0.24305522  0.91475890  0.39133394     0.36700
N2411       N  0.27259919  0.87872518  0.41878076    -0.43500
N2412       N  0.23791173  0.92054544  0.38648726    -0.43500
C2413       C  0.34428795  0.93036973  0.32845068     0.00100
C2414       C  0.34587049  0.93539378  0.33818770    -0.11800
C2415       C  0.33809308  0.93522227  0.34602900     0.02300
C2416       C  0.32838738  0.93006126  0.34416567     0.00000
C2417       C  0.32709163  0.92434652  0.33475499    -0.11700
C2418       C  0.33494145  0.92448131  0.32688880     0.02200
H2419       H  0.35310889  0.93975881  0.33955428     0.15200
H2420       H  0.31966432  0.92037185  0.33324363     0.15200
C2421       C  0.33279309  0.91933900  0.31696180     0.36800
C2422       C  0.34023584  0.94050379  0.35590228     0.36700
N2423       N  0.33106353  0.91524858  0.30898320    -0.43500
N2424       N  0.34197015  0.94470560  0.36382285    -0.43500
C2425       C  0.43058308  0.82953553  0.19251254     0.00100
C2426       C  0.42479069  0.83058079  0.18313184    -0.11800
C2427       C  0.42483881  0.82250315  0.17548323     0.02300
C2428       C  0.43073645  0.81315967  0.17724690     0.00000
C2429       C  0.43575529  0.81184384  0.18703521    -0.11700
C2430       C  0.43573032  0.81987579  0.19460583     0.02200
H2431       H  0.42081676  0.83798141  0.18146471     0.15200
H2432       H  0.44005377  0.80461488  0.18865592     0.15200
C2433       C  0.44125470  0.81808212  0.20441043     0.36800
C2434       C  0.41950830  0.82442177  0.16561516     0.36700
N2435       N  0.44567835  0.81664407  0.21226472    -0.43500
N2436       N  0.41521691  0.82600503  0.15771453    -0.43500
C2437       C  0.41040441  0.89446716  0.24998826     0.00100
C2438       C  0.41001067  0.89361090  0.26101684    -0.11800
C2439       C  0.40393401  0.90061052  0.26709653     0.02300
C2440       C  0.39831815  0.90890638  0.26215066     0.00000
C2441       C  0.39873608  0.90975114  0.25109562    -0.11700
C2442       C  0.40457969  0.90254292  0.24500448     0.02200
H2443       H  0.41453841  0.88746975  0.26490555     0.15200
H2444       H  0.39445664  0.91605614  0.24719487     0.15200
C2445       C  0.40484977  0.90386937  0.23369843     0.36800
C2446       C  0.40402676  0.89935252  0.27841638     0.36700
N2447       N  0.40507008  0.90491367  0.22463085    -0.43500
N2448       N  0.40410414  0.89828039  0.28748405    -0.43500
C2449       C  0.11292744  0.24891709  0.41251041     0.00100
C2450       C  0.11688155  0.25238061  0.40275008    -0.11800
C2451       C  0.11044107  0.25782397  0.39556559     0.02300
C2452       C  0.09974270  0.25985700  0.39807592     0.00000
C2453       C  0.09577858  0.25620764  0.40777964    -0.11700
C2454       C  0.10220999  0.25079458  0.41494682     0.02200
H2455       H  0.12508035  0.25091242  0.40075538     0.15200
H2456       H  0.08759812  0.25763931  0.40985408     0.15200
C2457       C  0.09744318  0.24686634  0.42452628     0.36800
C2458       C  0.11497103  0.26084811  0.38556241     0.36700
N2459       N  0.09358761  0.24370221  0.43217916    -0.43500
N2460       N  0.11866924  0.26324270  0.37756013    -0.43500
C2461       C  0.07952851  0.33486481  0.32005122     0.00100
C2462       C  0.07598971  0.32443480  0.31876691    -0.11800
C2463       C  0.07587665  0.31735889  0.32721922     0.02300
C2464       C  0.07940871  0.32062886  0.33723396     0.00000
C2465       C  0.08358663  0.33082189  0.33843771    -0.11700
C2466       C  0.08366612  0.33797005  0.32993711     0.02200
H2467       H  0.07294338  0.32189268  0.31118464     0.15200
H2468       H  0.08621192  0.33339581  0.34616343     0.15200
C2469       C  0.08717985  0.34863922  0.33183186     0.36800
C2470       C  0.07177818  0.30685674  0.32550319     0.36700
N2471       N  0.08997942  0.35719512  0.33339497    -0.43500
N2472       N  0.06849762  0.29844330  0.32412134    -0.43500
C2473       C  0.13687942  0.49177962  0.22991180     0.00100
C2474       C  0.13759091  0.49708730  0.22021606    -0.11800
C2475       C  0.13775800  0.50808602  0.21972113     0.02300
C2476       C  0.13726535  0.51407896  0.22909345     0.00000
C2477       C  0.13565517  0.50885754  0.23873635    -0.11700
C2478       C  0.13545746  0.49776696  0.23922861     0.02200
H2479       H  0.13823022  0.49260928  0.21294711     0.15200
H2480       H  0.13511466  0.51342406  0.24595729     0.15200
C2481       C  0.13446672  0.49282379  0.24943506     0.36800
C2482       C  0.13836015  0.51299146  0.20944872     0.36700
N2483       N  0.13363206  0.48892603  0.25765139    -0.43500
N2484       N  0.13882244  0.51687478  0.20119705    -0.43500
C2485       C  0.11446033  0.40954094  0.24898311     0.00100
C2486       C  0.10799298  0.40271514  0.24315163    -0.11800
C2487       C  0.10097772  0.39583205  0.24821588     0.02300
C2488       C  0.10047710  0.39559598  0.25935742     0.00000
C2489       C  0.10721691  0.40216583  0.26518546    -0.11700
C2490       C  0.11411390  0.40916384  0.26011233     0.02200
H2491       H  0.10828235  0.40289921  0.23459966     0.15200
H2492       H  0.10694776  0.40198214  0.27373715     0.15200
C2493       C  0.12097571  0.41562818  0.26650734     0.36800
C2494       C  0.09463316  0.38889181  0.24178127     0.36700
N2495       N  0.12649520  0.42078846  0.27163409    -0.43500
N2496       N  0.08957119  0.38333345  0.23659689    -0.43500
C2497       C  0.23802789  0.48922626  0.13716855     0.00100
C2498       C  0.23813121  0.49412613  0.14709305    -0.11800
C2499       C  0.23889684  0.50508055  0.14808448     0.02300
C2500       C  0.23938418  0.51150359  0.13896889     0.00000
C2501       C  0.24004226  0.50657740  0.12903385    -0.11700
C2502       C  0.23939792  0.49552061  0.12806693     0.02200
H2503       H  0.23746608  0.48935373  0.15416964     0.15200
H2504       H  0.24054461  0.51137965  0.12197167     0.15200
C2505       C  0.23948936  0.49094343  0.11764198     0.36800
C2506       C  0.23928704  0.50943008  0.15861357     0.36700
N2507       N  0.23959064  0.48730908  0.10926346    -0.43500
N2508       N  0.23958249  0.51285045  0.16707716    -0.43500
C2509       C  0.19483227  0.42800653  0.17644078     0.00100
C2510       C  0.18563542  0.42211675  0.17447122    -0.11800
C2511       C  0.17714114  0.42227457  0.18165878     0.02300
C2512       C  0.17783813  0.42845791  0.19091366     0.00000
C2513       C  0.18739965  0.43351117  0.19325867    -0.11700
C2514       C  0.19586054  0.43326778  0.18620303     0.02200
H2515       H  0.18481077  0.41797070  0.16703103     0.15200
H2516       H  0.18814506  0.43799877  0.20051371     0.15200
C2517       C  0.20548315  0.43863434  0.18912794     0.36800
C2518       C  0.16757201  0.41671549  0.17898167     0.36700
N2519       N  0.21319000  0.44290900  0.19152117    -0.43500
N2520       N  0.15991707  0.41222227  0.17683057    -0.43500
C2521       C  0.25252151  0.40605148  0.11284820     0.00100
C2522       C  0.24756047  0.40262664  0.10358996    -0.11800
C2523       C  0.25288766  0.39616263  0.09632673     0.02300
C2524       C  0.26345739  0.39304308  0.09825684     0.00000
C2525       C  0.26821963  0.39611828  0.10779980    -0.11700
C2526       C  0.26286532  0.40259768  0.11504060     0.02200
H2527       H  0.23954842  0.40516500  0.10194476     0.15200
H2528       H  0.27627174  0.39374809  0.10946897     0.15200
C2529       C  0.26815059  0.40567895  0.12464328     0.36800
C2530       C  0.24718761  0.39265541  0.08711443     0.36700
N2531       N  0.27236223  0.40811855  0.13236586    -0.43500
N2532       N  0.24256337  0.38984875  0.07975982    -0.43500
C2533       C  0.34436234  0.32127049  0.07399707     0.00100
C2534       C  0.33475914  0.31974508  0.07934522    -0.11800
C2535       C  0.32709643  0.32780294  0.07974976     0.02300
C2536       C  0.32906183  0.33761574  0.07478821     0.00000
C2537       C  0.33898459  0.33931951  0.07014138    -0.11700
C2538       C  0.34659217  0.33133006  0.06974146     0.02200
H2539       H  0.33298135  0.31205833  0.08266846     0.15200
H2540       H  0.34073674  0.34689906  0.06656195     0.15200
C2541       C  0.35664565  0.33369765  0.06489718     0.36800
C2542       C  0.31704570  0.32548334  0.08457698     0.36700
N2543       N  0.36469725  0.33561550  0.06102473    -0.43500
N2544       N  0.30899639  0.32356783  0.08845424    -0.43500
C2545       C  0.39803557  0.25430791  0.09445124     0.00100
C2546       C  0.39421787  0.25167604  0.10452222    -0.11800
C2547       C  0.40066664  0.24657499  0.11196024     0.02300
C2548       C  0.41120649  0.24390667  0.10935412     0.00000
C2549       C  0.41503228  0.24667660  0.09931606    -0.11700
C2550       C  0.40865394  0.25189192  0.09195310     0.02200
H2551       H  0.38614845  0.25363995  0.10661600     0.15200
H2552       H  0.42311374  0.24482237  0.09718396     0.15200
C2553       C  0.41348503  0.25521163  0.08217567     0.36800
C2554       C  0.39637890  0.24472544  0.12234540     0.36700
N2555       N  0.41741991  0.25790500  0.07438288    -0.43500
N2556       N  0.39289709  0.24331429  0.13067166    -0.43500
C2557       C  0.37899516  0.01511167  0.28282371     0.00100
C2558       C  0.38133530  0.01015408  0.29242695    -0.11800
C2559       C  0.38231925  0.99917856  0.29310778     0.02300
C2560       C  0.38069494  0.99282430  0.28407331     0.00000
C2561       C  0.37899055  0.99780893  0.27430685    -0.11700
C2562       C  0.37814129  0.00887736  0.27361709     0.02200
H2563       H  0.38229242  0.01489572  0.29949271     0.15200
H2564       H  0.37778071  0.99304014  0.26730555     0.15200
C2565       C  0.37564243  0.01356181  0.26354718     0.36800
C2566       C  0.38515917  0.99468501  0.30318720     0.36700
N2567       N  0.37361838  0.01731933  0.25547616    -0.43500
N2568       N  0.38746386  0.99111662  0.31126890    -0.43500
C2569       C  0.43117577  0.17710450  0.19531724     0.00100
C2570       C  0.43571704  0.18709740  0.19682218    -0.11800
C2571       C  0.43571105  0.19465475  0.18879057     0.02300
C2572       C  0.43110503  0.19230546  0.17892573     0.00000
C2573       C  0.42578963  0.18265277  0.17765903    -0.11700
C2574       C  0.42582494  0.17502639  0.18575076     0.02200
H2575       H  0.43965813  0.18887916  0.20420693     0.15200
H2576       H  0.42225517  0.18077005  0.17010000     0.15200
C2577       C  0.42117352  0.16484432  0.18366064     0.36800
C2578       C  0.44070741  0.20470690  0.19081439     0.36700
N2579       N  0.41746481  0.15667152  0.18195468    -0.43500
N2580       N  0.44471730  0.21275266  0.19244201    -0.43500
C2581       C  0.41297739  0.11079317  0.25112952     0.00100
C2582       C  0.41130492  0.11241902  0.26194622    -0.11800
C2583       C  0.40443588  0.10590295  0.26770946     0.02300
C2584       C  0.39918806  0.09744134  0.26264450     0.00000
C2585       C  0.40100759  0.09577164  0.25181831    -0.11700
C2586       C  0.40776440  0.10238670  0.24604911     0.02200
H2587       H  0.41540318  0.11880711  0.26590824     0.15200
H2588       H  0.39710486  0.08928625  0.24782406     0.15200
C2589       C  0.40954252  0.10015502  0.23501876     0.36800
C2590       C  0.40335185  0.10780753  0.27888482     0.36700
N2591       N  0.41100178  0.09833183  0.22618934    -0.43500
N2592       N  0.40252976  0.10937960  0.28784360    -0.43500
C2593       C  0.28255514  0.01358612  0.37949090     0.00100
C2594       C  0.27294884  0.00806244  0.37896342    -0.11800
C2595       C  0.27273096  0.99695086  0.37907364     0.02300
C2596       C  0.28226599  0.99119778  0.37989942     0.00000
C2597       C  0.29176153  0.99679415  0.38112565    -0.11700
C2598       C  0.29199197  0.00783064  0.38091870     0.02200
H2599       H  0.26565661  0.01241345  0.37785979     0.15200
H2600       H  0.29912067  0.99250856  0.38203536     0.15200
C2601       C  0.30204926  0.01303532  0.38224115     0.36800
C2602       C  0.26274518  0.99172207  0.37746973     0.36700
N2603       N  0.31012350  0.01717062  0.38330817    -0.43500
N2604       N  0.25472243  0.98756607  0.37613306    -0.43500
C2605       C  0.33349675  0.07735119  0.31896951     0.00100
C2606       C  0.33432633  0.08383542  0.32793848    -0.11800
C2607       C  0.32634730  0.08383453  0.33570243     0.02300
C2608       C  0.31744070  0.07723306  0.33449487     0.00000
C2609       C  0.31623703  0.07153748  0.32509212    -0.11700
C2610       C  0.32407795  0.07162449  0.31733545     0.02200
H2611       H  0.34149775  0.08832234  0.32923144     0.15200
H2612       H  0.30929992  0.06663854  0.32398853     0.15200
C2613       C  0.32235722  0.06555957  0.30783850     0.36800
C2614       C  0.32787963  0.08995756  0.34518006     0.36700
N2615       N  0.32096151  0.06072334  0.30021888    -0.43500
N2616       N  0.32911029  0.09487964  0.35277445    -0.43500
C2617       C  0.19714591  0.18033047  0.42894662     0.00100
C2618       C  0.19986026  0.19056670  0.43218833    -0.11800
C2619       C  0.19240322  0.19868345  0.43228401     0.02300
C2620       C  0.18190887  0.19662911  0.42918084     0.00000
C2621       C  0.17938772  0.18666610  0.42501234    -0.11700
C2622       C  0.18692193  0.17849753  0.42487568     0.02200
H2623       H  0.20777437  0.19214273  0.43504928     0.15200
H2624       H  0.17135005  0.18504314  0.42256211     0.15200
C2625       C  0.18368075  0.16815107  0.42138714     0.36800
C2626       C  0.19568676  0.20902303  0.43580870     0.36700
N2627       N  0.18104968  0.15986526  0.41857738    -0.43500
N2628       N  0.19832528  0.21730608  0.43861940    -0.43500
C2629       C  0.24667778  0.10950384  0.41069528     0.00100
C2630       C  0.24865796  0.11268812  0.40025427    -0.11800
C2631       C  0.25343443  0.10583618  0.39294577     0.02300
C2632       C  0.25646775  0.09553481  0.39605427     0.00000
C2633       C  0.25407879  0.09223982  0.40637956    -0.11700
C2634       C  0.24918376  0.09903072  0.41362516     0.02200
H2635       H  0.24658008  0.12062227  0.39779933     0.15200
H2636       H  0.25615300  0.08433166  0.40890426     0.15200
C2637       C  0.24642251  0.09483803  0.42385226     0.36800
C2638       C  0.25471019  0.10949849  0.38223771     0.36700
N2639       N  0.24416546  0.09142050  0.43201558    -0.43500
N2640       N  0.25565244  0.11248053  0.37365726    -0.43500
C2641       C  0.75951232  0.59249702  0.11345666     0.00100
C2642       C  0.75623598  0.58844638  0.10366575    -0.11800
C2643       C  0.75080479  0.59472482  0.09636810     0.02300
C2644       C  0.74857178  0.60540688  0.09873790     0.00000
C2645       C  0.75162637  0.60941376  0.10861857    -0.11700
C2646       C  0.75704268  0.60309586  0.11594869     0.02200
H2647       H  0.75795035  0.58030206  0.10165051     0.15200
H2648       H  0.74981979  0.61754450  0.11061489     0.15200
C2649       C  0.75950842  0.60756803  0.12612294     0.36800
C2650       C  0.74717757  0.58978584  0.08676124     0.36700
N2651       N  0.76142137  0.61118074  0.13428778    -0.43500
N2652       N  0.74425538  0.58576866  0.07909854    -0.43500
C2653       C  0.66804621  0.67810674  0.08049629     0.00100
C2654       C  0.67767596  0.67976296  0.08573322    -0.11800
C2655       C  0.68567931  0.67204920  0.08548579     0.02300
C2656       C  0.68399816  0.66245888  0.08003350     0.00000
C2657       C  0.67406398  0.66053135  0.07554723    -0.11700
C2658       C  0.66612787  0.66820595  0.07575276     0.02200
H2659       H  0.67924009  0.68736794  0.08934141     0.15200
H2660       H  0.67263048  0.65312397  0.07149252     0.15200
C2661       C  0.65614212  0.66581207  0.07080592     0.36800
C2662       C  0.69584032  0.67459257  0.08994963     0.36700
N2663       N  0.64814304  0.66389010  0.06684389    -0.43500
N2664       N  0.70400987  0.67665254  0.09347124    -0.43500
C2665       C  0.51550998  0.77108318  0.13605336     0.00100
C2666       C  0.51029209  0.76904412  0.14560082    -0.11800
C2667       C  0.49927153  0.76877871  0.14616440     0.02300
C2668       C  0.49316159  0.77088964  0.13708476     0.00000
C2669       C  0.49836337  0.77222619  0.12735944    -0.11700
C2670       C  0.50946681  0.77229950  0.12677423     0.02200
H2671       H  0.51487327  0.76779953  0.15272203     0.15200
H2672       H  0.49377354  0.77372958  0.12030107     0.15200
C2673       C  0.51443107  0.77434614  0.11672911     0.36800
C2674       C  0.49445792  0.76610783  0.15614543     0.36700
N2675       N  0.51841047  0.77597565  0.10866961    -0.43500
N2676       N  0.49061301  0.76390017  0.16413156    -0.43500
C2677       C  0.59973938  0.75592396  0.11443947     0.00100
C2678       C  0.60721798  0.76181878  0.10876581    -0.11800
C2679       C  0.61463188  0.75682716  0.10221601     0.02300
C2680       C  0.61488329  0.74570033  0.10154246     0.00000
C2681       C  0.60769383  0.73978878  0.10754566    -0.11700
C2682       C  0.60005623  0.74478599  0.11382884     0.02200
H2683       H  0.60706254  0.77037133  0.10920245     0.15200
H2684       H  0.60782067  0.73123817  0.10705526     0.15200
C2685       C  0.59273874  0.73828614  0.11966250     0.36800
C2686       C  0.62194873  0.76329273  0.09633676     0.36700
N2687       N  0.58687615  0.73303640  0.12430207    -0.43500
N2688       N  0.62779207  0.76849089  0.09161483    -0.43500
C2689       C  0.99619147  0.72979237  0.37066537     0.00100
C2690       C  0.00176056  0.72857737  0.36115871    -0.11800
C2691       C  0.01277411  0.72807826  0.36099374     0.02300
C2692       C  0.01851045  0.72880427  0.37051147     0.00000
C2693       C  0.01302661  0.73078387  0.37994610    -0.11700
C2694       C  0.00193653  0.73121672  0.38011566     0.02200
H2695       H  0.99746304  0.72775036  0.35380593     0.15200
H2696       H  0.01737245  0.73136532  0.38729132     0.15200
C2697       C  0.99670634  0.73225631  0.39017890     0.36800
C2698       C  0.01796399  0.72681531  0.35091560     0.36700
N2699       N  0.99255443  0.73305846  0.39827731    -0.43500
N2700       N  0.02208406  0.72579770  0.34282424    -0.43500
C2701       C  0.89892301  0.75769105  0.40774170     0.00100
C2702       C  0.90684773  0.76342311  0.40256359    -0.11800
C2703       C  0.91395360  0.75839902  0.39570747     0.02300
C2704       C  0.91308425  0.74742397  0.39379670     0.00000
C2705       C  0.90484214  0.74179621  0.39864786    -0.11700
C2706       C  0.89786050  0.74680688  0.40565159     0.02200
H2707       H  0.90763449  0.77181864  0.40406998     0.15200
H2708       H  0.90402137  0.73339831  0.39719258     0.15200
C2709       C  0.88954987  0.74067319  0.41046364     0.36800
C2710       C  0.92189516  0.76475910  0.39057115     0.36700
N2711       N  0.88285729  0.73577131  0.41428944    -0.43500
N2712       N  0.92825903  0.76987224  0.38646865    -0.43500
C2713       C  0.99490512  0.63561012  0.27067630     0.00100
C2714       C  0.00005985  0.64540870  0.27088149    -0.11800
C2715       C  0.01106027  0.64606199  0.27059574     0.02300
C2716       C  0.01718099  0.63675337  0.27014580     0.00000
C2717       C  0.01204240  0.62697388  0.26914196    -0.11700
C2718       C  0.00097004  0.62632231  0.26945747     0.02200
H2719       H  0.99546160  0.65260750  0.27156812     0.15200
H2720       H  0.01668123  0.61978213  0.26878453     0.15200
C2721       C  0.99612900  0.61600952  0.26944649     0.36800
C2722       C  0.01584811  0.65640906  0.27082537     0.36700
N2723       N  0.99226637  0.60772990  0.26947702    -0.43500
N2724       N  0.01964819  0.66471548  0.27100549    -0.43500
C2725       C  0.93493744  0.66690313  0.32146902     0.00100
C2726       C  0.92773024  0.67528703  0.32054075    -0.11800
C2727       C  0.92761737  0.68353637  0.32798252     0.02300
C2728       C  0.93469569  0.68331943  0.33658518     0.00000
C2729       C  0.94129172  0.67451374  0.33788975    -0.11700
C2730       C  0.94149152  0.66637895  0.33045556     0.02200
H2731       H  0.92273147  0.67578252  0.31361685     0.15200
H2732       H  0.94664477  0.67418885  0.34455976     0.15200
C2733       C  0.94871842  0.65770414  0.33211251     0.36800
C2734       C  0.92094209  0.69256396  0.32605188     0.36700
N2735       N  0.95453703  0.65078270  0.33344019    -0.43500
N2736       N  0.91563581  0.69983215  0.32446359    -0.43500
C2737       C  0.84388648  0.57142057  0.18221755     0.00100
C2738       C  0.84410003  0.56426540  0.17375201    -0.11800
C2739       C  0.83599489  0.56396675  0.16628136     0.02300
C2740       C  0.82733999  0.57097031  0.16711379     0.00000
C2741       C  0.82755502  0.57878187  0.17499719    -0.11700
C2742       C  0.83570991  0.57903569  0.18256410     0.02200
H2743       H  0.85048365  0.55858185  0.17315982     0.15200
H2744       H  0.82098950  0.58423772  0.17568726     0.15200
C2745       C  0.83498180  0.58660238  0.19103923     0.36800
C2746       C  0.83670732  0.55622012  0.15793671     0.36700
N2747       N  0.83435300  0.59268188  0.19783006    -0.43500
N2748       N  0.83729351  0.54997240  0.15129499    -0.43500
C2749       C  0.90006304  0.59384736  0.24715581     0.00100
C2750       C  0.89989100  0.59368101  0.25824388    -0.11800
C2751       C  0.90611708  0.60069127  0.26416127     0.02300
C2752       C  0.91284622  0.60789564  0.25896013     0.00000
C2753       C  0.91302261  0.60804130  0.24788867    -0.11700
C2754       C  0.90666810  0.60118892  0.24197931     0.02200
H2755       H  0.89490044  0.58802472  0.26229386     0.15200
H2756       H  0.91823594  0.61348760  0.24382675     0.15200
C2757       C  0.90755434  0.60146653  0.23062747     0.36800
C2758       C  0.90587968  0.59994185  0.27552427     0.36700
N2759       N  0.90831079  0.60169802  0.22153077    -0.43500
N2760       N  0.90570588  0.59933015  0.28463337    -0.43500
C2761       C  0.51472223  0.87414626  0.22953522     0.00100
C2762       C  0.50918459  0.87432978  0.23913199    -0.11800
C2763       C  0.49808996  0.87419001  0.23928950     0.02300
C2764       C  0.49241368  0.87404213  0.22968838     0.00000
C2765       C  0.49800946  0.87462831  0.22014562    -0.11700
C2766       C  0.50902836  0.87467727  0.21998550     0.02200
H2767       H  0.51351813  0.87388736  0.24649482     0.15200
H2768       H  0.49374558  0.87477872  0.21272880     0.15200
C2769       C  0.51429732  0.87518163  0.20988162     0.36800
C2770       C  0.49282097  0.87325110  0.24934322     0.36700
N2771       N  0.51851418  0.87556613  0.20178642    -0.43500
N2772       N  0.48862858  0.87244124  0.25741918    -0.43500
C2773       C  0.57610722  0.82798572  0.19380469     0.00100
C2774       C  0.58191419  0.82990275  0.18455208    -0.11800
C2775       C  0.58209729  0.82244672  0.17631944     0.02300
C2776       C  0.57644175  0.81289099  0.17737028     0.00000
C2777       C  0.57136418  0.81068902  0.18696122    -0.11700
C2778       C  0.57119026  0.81807576  0.19514309     0.02200
H2779       H  0.58571942  0.83749450  0.18346630     0.15200
H2780       H  0.56720199  0.80326791  0.18794321     0.15200
C2781       C  0.56578699  0.81532192  0.20480199     0.36800
C2782       C  0.58734549  0.82518392  0.16659127     0.36700
N2783       N  0.56146976  0.81309632  0.21253885    -0.43500
N2784       N  0.59153927  0.82741059  0.15878802    -0.43500
C2785       C  0.59782905  0.89189479  0.25046184     0.00100
C2786       C  0.60517530  0.89784992  0.24469919    -0.11800
C2787       C  0.61218120  0.90471555  0.24981534     0.02300
C2788       C  0.61212795  0.90544272  0.26094105     0.00000
C2789       C  0.60508395  0.89914733  0.26671816    -0.11700
C2790       C  0.59785523  0.89253613  0.26158752     0.02200
H2791       H  0.60521837  0.89738310  0.23615352     0.15200
H2792       H  0.60499872  0.89964840  0.27526151     0.15200
C2793       C  0.59063074  0.88641474  0.26792998     0.36800
C2794       C  0.61941083  0.91082733  0.24346827     0.36700
N2795       N  0.58482119  0.88153683  0.27302043    -0.43500
N2796       N  0.62517486  0.91573788  0.23835686    -0.43500
C2797       C  0.68960041  0.92576496  0.33650654     0.00100
C2798       C  0.67985576  0.92085458  0.33853150    -0.11800
C2799       C  0.67188326  0.92066438  0.33078200     0.02300
C2800       C  0.67368450  0.92545376  0.32087488     0.00000
C2801       C  0.68373321  0.92952284  0.31863389    -0.11700
C2802       C  0.69165453  0.92966979  0.32628027     0.02200
H2803       H  0.67822573  0.91780227  0.34635727     0.15200
H2804       H  0.68528175  0.93299670  0.31096263     0.15200
C2805       C  0.70178335  0.93410870  0.32348669     0.36800
C2806       C  0.66170170  0.91632378  0.33346929     0.36700
N2807       N  0.70989847  0.93765946  0.32125065    -0.43500
N2808       N  0.65353440  0.91283970  0.33562032    -0.43500
C2809       C  0.83012906  0.84039693  0.43188905     0.00100
C2810       C  0.82803521  0.83101606  0.42634482    -0.11800
C2811       C  0.83554150  0.82281675  0.42595358     0.02300
C2812       C  0.84536175  0.82402075  0.43111016     0.00000
C2813       C  0.84768703  0.83371218  0.43594823    -0.11700
C2814       C  0.84024033  0.84186033  0.43632957     0.02200
H2815       H  0.82029178  0.82981413  0.42290770     0.15200
H2816       H  0.85528318  0.83481775  0.43973702     0.15200
C2817       C  0.84316933  0.85164446  0.44139960     0.36800
C2818       C  0.83260415  0.81297122  0.42103713     0.36700
N2819       N  0.84554557  0.85948767  0.44543652    -0.43500
N2820       N  0.83020558  0.80507410  0.41711959    -0.43500
C2821       C  0.76285702  0.89407992  0.41163578     0.00100
C2822       C  0.75179833  0.89408030  0.41253385    -0.11800
C2823       C  0.74550739  0.90019151  0.40576659     0.02300
C2824       C  0.75029735  0.90661607  0.39802594     0.00000
C2825       C  0.76134857  0.90665472  0.39716108    -0.11700
C2826       C  0.76762993  0.90042020  0.40380219     0.02200
H2827       H  0.74805866  0.88931144  0.41858072     0.15200
H2828       H  0.76510143  0.91165892  0.39131366     0.15200
C2829       C  0.77895734  0.90116708  0.40278833     0.36800
C2830       C  0.73421667  0.90017306  0.40732121     0.36700
N2831       N  0.78803354  0.90181810  0.40196496    -0.43500
N2832       N  0.72516815  0.90017668  0.40859251    -0.43500
C2833       C  0.77508936  0.48812900  0.13942231     0.00100
C2834       C  0.77284050  0.49340735  0.12993317    -0.11800
C2835       C  0.77307648  0.50450338  0.12939397     0.02300
C2836       C  0.77558167  0.51044933  0.13849781     0.00000
C2837       C  0.77703961  0.50514760  0.14810005    -0.11700
C2838       C  0.77673797  0.49414509  0.14865898     0.02200
H2839       H  0.77150679  0.48886314  0.12280537     0.15200
H2840       H  0.77862663  0.50963450  0.15521664     0.15200
C2841       C  0.77812099  0.48925978  0.15886227     0.36800
C2842       C  0.77149186  0.50948456  0.11928125     0.36700
N2843       N  0.77921439  0.48539962  0.16706393    -0.43500
N2844       N  0.77020857  0.51343056  0.11114770    -0.43500
C2845       C  0.76099401  0.40485881  0.11364532     0.00100
C2846       C  0.76741187  0.39730790  0.10864111    -0.11800
C2847       C  0.76315251  0.39005098  0.10146711     0.02300
C2848       C  0.75224438  0.39019429  0.09925367     0.00000
C2849       C  0.74574167  0.39741204  0.10458651    -0.11700
C2850       C  0.75000963  0.40475246  0.11168616     0.02200
H2851       H  0.77583175  0.39719797  0.11017413     0.15200
H2852       H  0.73731879  0.39744312  0.10305032     0.15200
C2853       C  0.74289124  0.41184393  0.11707653     0.36800
C2854       C  0.77007609  0.38230866  0.09675478     0.36700
N2855       N  0.73715904  0.41750151  0.12140132    -0.43500
N2856       N  0.77561506  0.37606331  0.09302905    -0.43500
C2857       C  0.51577389  0.22625835  0.13272551     0.00100
C2858       C  0.50980628  0.21703129  0.13124589    -0.11800
C2859       C  0.49878655  0.21723819  0.13154711     0.02300
C2860       C  0.49343846  0.22685061  0.13326260     0.00000
C2861       C  0.49930556  0.23620200  0.13420547    -0.11700
C2862       C  0.51041203  0.23597955  0.13404909     0.02200
H2863       H  0.51377767  0.20954124  0.13001740     0.15200
H2864       H  0.49522392  0.24359645  0.13563903     0.15200
C2865       C  0.51603026  0.24567010  0.13611010     0.36800
C2866       C  0.49313949  0.20743829  0.13009108     0.36700
N2867       N  0.52048072  0.25346071  0.13783109    -0.43500
N2868       N  0.48862657  0.19958211  0.12892422    -0.43500
C2869       C  0.68192568  0.30920710  0.07881801     0.00100
C2870       C  0.68020097  0.31872299  0.08425195    -0.11800
C2871       C  0.68778501  0.32684090  0.08401116     0.02300
C2872       C  0.69727204  0.32539003  0.07829436     0.00000
C2873       C  0.69932390  0.31549104  0.07375173    -0.11700
C2874       C  0.69178994  0.30745982  0.07395415     0.02200
H2875       H  0.67262799  0.32011939  0.08800118     0.15200
H2876       H  0.70671247  0.31414840  0.06962799     0.15200
C2877       C  0.69425794  0.29758859  0.06879214     0.36800
C2878       C  0.68521723  0.33681937  0.08887793     0.36700
N2879       N  0.69626215  0.28969598  0.06464284    -0.43500
N2880       N  0.68311271  0.34480636  0.09279293    -0.43500
C2881       C  0.61179475  0.25814196  0.09785458     0.00100
C2882       C  0.61591530  0.25353175  0.10705335    -0.11800
C2883       C  0.60946249  0.24777713  0.11402969     0.02300
C2884       C  0.59856046  0.24645114  0.11183905     0.00000
C2885       C  0.59446486  0.25128478  0.10271285    -0.11700
C2886       C  0.60086631  0.25715032  0.09586267     0.02200
H2887       H  0.62426146  0.25433948  0.10877049     0.15200
H2888       H  0.58616677  0.25050171  0.10082289     0.15200
C2889       C  0.59582955  0.26249855  0.08715173     0.36800
C2890       C  0.61428357  0.24369691  0.12349387     0.36700
N2891       N  0.59173993  0.26681957  0.08022426    -0.43500
N2892       N  0.61827811  0.24048973  0.13105230    -0.43500
C2893       C  0.63580164  0.01018704  0.27825070     0.00100
C2894       C  0.63476941  0.00476292  0.26863273    -0.11800
C2895       C  0.63509960  0.99365731  0.26829071     0.02300
C2896       C  0.63636999  0.98784777  0.27772768     0.00000
C2897       C  0.63679813  0.99331153  0.28734818    -0.11700
C2898       C  0.63650780  0.00432104  0.28769721     0.02200
H2899       H  0.63424648  0.00920690  0.26133933     0.15200
H2900       H  0.63747996  0.98894920  0.29468018     0.15200
C2901       C  0.63685521  0.00937235  0.29791305     0.36800
C2902       C  0.63488137  0.98849970  0.25814011     0.36700
N2903       N  0.63714095  0.01338212  0.30611387    -0.43500
N2904       N  0.63474087  0.98438481  0.24998701    -0.43500
C2905       C  0.51692143  0.13349079  0.23087022     0.00100
C2906       C  0.51279988  0.14376077  0.23103976    -0.11800
C2907       C  0.50199780  0.14557115  0.23252303     0.02300
C2908       C  0.49495414  0.13694324  0.23352050     0.00000
C2909       C  0.49916763  0.12665633  0.23377376    -0.11700
C2910       C  0.51005275  0.12488411  0.23249527     0.02200
H2911       H  0.51807652  0.15042801  0.23000444     0.15200
H2912       H  0.49391907  0.11994324  0.23454653     0.15200
C2913       C  0.51388615  0.11415558  0.23219695     0.36800
C2914       C  0.49848358  0.15639487  0.23329237     0.36700
N2915       N  0.51697169  0.10555699  0.23192940    -0.43500
N2916       N  0.49572657  0.16508679  0.23393717    -0.43500
C2917       C  0.57819195  0.16257892  0.18132236     0.00100
C2918       C  0.58378160  0.17190981  0.18351217    -0.11800
C2919       C  0.58359638  0.18047692  0.17641726     0.02300
C2920       C  0.57779647  0.17971479  0.16692100     0.00000
C2921       C  0.57284684  0.17011278  0.16446294    -0.11700
C2922       C  0.57304579  0.16159721  0.17149065     0.02200
H2923       H  0.58769381  0.17277698  0.19106891     0.15200
H2924       H  0.56853314  0.16935368  0.15711143     0.15200
C2925       C  0.56777570  0.15194721  0.16846648     0.36800
C2926       C  0.58860336  0.19022843  0.17950082     0.36700
N2927       N  0.56357849  0.14421185  0.16601745    -0.43500
N2928       N  0.59258671  0.19805656  0.18201040    -0.43500
C2929       C  0.59889470  0.10606759  0.24696542     0.00100
C2930       C  0.59921968  0.10698920  0.25800998    -0.11800
C2931       C  0.60590216  0.10055625  0.26410396     0.02300
C2932       C  0.61219157  0.09276047  0.25917938     0.00000
C2933       C  0.61180255  0.09179802  0.24813721    -0.11700
C2934       C  0.60537120  0.09844743  0.24202238     0.02200
H2935       H  0.59424679  0.11278671  0.26189060     0.15200
H2936       H  0.61657054  0.08582789  0.24426120     0.15200
C2937       C  0.60522848  0.09698211  0.23072876     0.36800
C2938       C  0.60582041  0.10182306  0.27542087     0.36700
N2939       N  0.60512353  0.09580768  0.22167422    -0.43500
N2940       N  0.60576934  0.10285392  0.28449359    -0.43500
C2941       C  0.73179407  0.01086467  0.37477328     0.00100
C2942       C  0.74133977  0.00535536  0.37599783    -0.11800
C2943       C  0.74154120  0.99424180  0.37595424     0.02300
C2944       C  0.73202370  0.98852223  0.37473751     0.00000
C2945       C  0.72246118  0.99411624  0.37430316    -0.11700
C2946       C  0.72226340  0.00512932  0.37431727     0.02200
H2947       H  0.74868725  0.00972526  0.37643331     0.15200
H2948       H  0.71505349  0.98986124  0.37376721     0.15200
C2949       C  0.71212476  0.01034434  0.37389429     0.36800
C2950       C  0.75164323  0.98899804  0.37645899     0.36700
N2951       N  0.70399890  0.01451133  0.37355629    -0.43500
N2952       N  0.75976791  0.98483362  0.37687415    -0.43500
C2953       C  0.69259958  0.07249308  0.33268130     0.00100
C2954       C  0.69504748  0.06770844  0.32298918    -0.11800
C2955       C  0.68785711  0.06767679  0.31463158     0.02300
C2956       C  0.67785670  0.07249100  0.31582115     0.00000
C2957       C  0.67569155  0.07803819  0.32519100    -0.11700
C2958       C  0.68295338  0.07805176  0.33362162     0.02200
H2959       H  0.70254180  0.06366916  0.32202628     0.15200
H2960       H  0.66805466  0.08178102  0.32619343     0.15200
C2961       C  0.67993224  0.08308010  0.34338016     0.36800
C2962       C  0.69093650  0.06249142  0.30494782     0.36700
N2963       N  0.67746949  0.08711400  0.35119893    -0.43500
N2964       N  0.69343386  0.05830908  0.29721735    -0.43500
C2965       C  0.75781240  0.10777460  0.41309696     0.00100
C2966       C  0.75542739  0.09764898  0.41693908    -0.11800
C2967       C  0.74949645  0.09046045  0.41099544     0.02300
C2968       C  0.74590474  0.09323441  0.40079131     0.00000
C2969       C  0.74796168  0.10350444  0.39708388    -0.11700
C2970       C  0.75380093  0.11076045  0.40312997     0.02200
H2971       H  0.75825997  0.09527231  0.42465221     0.15200
H2972       H  0.74510402  0.10585982  0.38937588     0.15200
C2973       C  0.75510354  0.12134555  0.39912737     0.36800
C2974       C  0.74685589  0.08048933  0.41584871     0.36700
N2975       N  0.75605621  0.12985311  0.39593517    -0.43500
N2976       N  0.74474503  0.07253980  0.41982756    -0.43500
C2977       C  0.99673471  0.36962648  0.27389860     0.00100
C2978       C  0.00131378  0.35980000  0.27165546    -0.11800
C2979       C  0.01224040  0.35877055  0.27047451     0.02300
C2980       C  0.01882157  0.36766814  0.27174454     0.00000
C2981       C  0.01419602  0.37762450  0.27337661    -0.11700
C2982       C  0.00321640  0.37866018  0.27448694     0.02200
H2983       H  0.99633443  0.35286090  0.27102585     0.15200
H2984       H  0.01919201  0.38450073  0.27439162     0.15200
C2985       C  0.99888947  0.38888665  0.27707087     0.36800
C2986       C  0.01650404  0.34850991  0.26789065     0.36700
N2987       N  0.99543545  0.39707779  0.27919849    -0.43500
N2988       N  0.01992959  0.34030627  0.26576456    -0.43500
C2989       C  0.88224818  0.48798876  0.22592655     0.00100
C2990       C  0.88432935  0.49346617  0.21652958    -0.11800
C2991       C  0.88471426  0.50449048  0.21629538     0.02300
C2992       C  0.88288054  0.51035556  0.22560230     0.00000
C2993       C  0.88152835  0.50491409  0.23516592    -0.11700
C2994       C  0.88117548  0.49380504  0.23540237     0.02200
H2995       H  0.88548503  0.48910540  0.20925128     0.15200
H2996       H  0.88015001  0.50934367  0.24236092     0.15200
C2997       C  0.87891797  0.48866833  0.24530941     0.36800
C2998       C  0.88706079  0.50957775  0.20636564     0.36700
N2999       N  0.87709827  0.48456439  0.25326281    -0.43500
N3000       N  0.88894998  0.51364965  0.19841209    -0.43500
C3001       C  0.84243236  0.42643177  0.18293085     0.00100
C3002       C  0.84416159  0.43154290  0.17325685    -0.11800
C3003       C  0.83637698  0.43172831  0.16545208     0.02300
C3004       C  0.82657376  0.42678147  0.16726749     0.00000
C3005       C  0.82510655  0.42095801  0.17657970    -0.11700
C3006       C  0.83293584  0.42077455  0.18443651     0.02200
H3007       H  0.85150970  0.43573836  0.17193500     0.15200
H3008       H  0.81756910  0.41716652  0.17803328     0.15200
C3009       C  0.83061409  0.41557391  0.19429476     0.36800
C3010       C  0.83858333  0.43717591  0.15568423     0.36700
N3011       N  0.82869800  0.41142519  0.20220138    -0.43500
N3012       N  0.84037967  0.44149644  0.14784134    -0.43500
C3013       C  0.89916860  0.40569742  0.24767864     0.00100
C3014       C  0.89830766  0.40502217  0.25868878    -0.11800
C3015       C  0.90531071  0.39879216  0.26456886     0.02300
C3016       C  0.91353193  0.39325796  0.25941668     0.00000
C3017       C  0.91439012  0.39396868  0.24838742    -0.11700
C3018       C  0.90724485  0.40003344  0.24249878     0.02200
H3019       H  0.89218692  0.40946647  0.26271580     0.15200
H3020       H  0.92068478  0.38978505  0.24435399     0.15200
C3021       C  0.90869628  0.40075304  0.23122389     0.36800
C3022       C  0.90419689  0.39869199  0.27590602     0.36700
N3023       N  0.90987607  0.40135207  0.22218889    -0.43500
N3024       N  0.90328260  0.39862329  0.28499212    -0.43500
C3025       C  0.99514594  0.28046861  0.37933791     0.00100
C3026       C  0.00065130  0.27092976  0.37796041    -0.11800
C3027       C  0.01175115  0.27073895  0.37776508     0.02300
C3028       C  0.01747812  0.28023950  0.37897620     0.00000
C3029       C  0.01194773  0.28959605  0.38110944    -0.11700
C3030       C  0.00093087  0.28978244  0.38139224     0.02200
H3031       H  0.99629082  0.26371942  0.37645480     0.15200
H3032       H  0.01626869  0.29687823  0.38239102     0.15200
C3033       C  0.99579948  0.29966329  0.38389247     0.36800
C3034       C  0.01698705  0.26086094  0.37555096     0.36700
N3035       N  0.99172691  0.30759487  0.38591053    -0.43500
N3036       N  0.02116112  0.25292393  0.37377770    -0.43500
C3037       C  0.93373324  0.32264980  0.33997971     0.00100
C3038       C  0.93939462  0.33199517  0.34183462    -0.11800
C3039       C  0.94007771  0.33987297  0.33415785     0.02300
C3040       C  0.93499339  0.33851702  0.32436383     0.00000
C3041       C  0.92854886  0.32962613  0.32281562    -0.11700
C3042       C  0.92792702  0.32165299  0.33051880     0.02200
H3043       H  0.94371076  0.33294304  0.34916351     0.15200
H3044       H  0.92461013  0.32854840  0.31529861     0.15200
C3045       C  0.92212581  0.31215990  0.32808839     0.36800
C3046       C  0.94624408  0.34918819  0.33644520     0.36700
N3047       N  0.91749453  0.30454502  0.32608647    -0.43500
N3048       N  0.95117543  0.35665134  0.33829594    -0.43500
C3049       C  0.83601681  0.18530340  0.42804272     0.00100
C3050       C  0.83780789  0.17543560  0.42328176    -0.11800
C3051       C  0.82998474  0.16752492  0.42350725     0.02300
C3052       C  0.82023853  0.16950029  0.42856506     0.00000
C3053       C  0.81822931  0.17962244  0.43258077    -0.11700
C3054       C  0.82594264  0.18750312  0.43227941     0.02200
H3055       H  0.84553053  0.17366772  0.42003016     0.15200
H3056       H  0.81070644  0.18126089  0.43634298     0.15200
C3057       C  0.82340148  0.19775729  0.43659127     0.36800
C3058       C  0.83244883  0.15721900  0.41931864     0.36700
N3059       N  0.82137446  0.20598866  0.44000762    -0.43500
N3060       N  0.83442568  0.14894883  0.41596725    -0.43500
C3061       C  0.89879318  0.24424931  0.40757148     0.00100
C3062       C  0.90627109  0.23881179  0.40146030    -0.11800
C3063       C  0.91322464  0.24427787  0.39477533     0.02300
C3064       C  0.91262427  0.25540194  0.39397025     0.00000
C3065       C  0.90481664  0.26077192  0.39973920    -0.11700
C3066       C  0.89800731  0.25532186  0.40656768     0.02200
H3067       H  0.90685314  0.23029136  0.40210944     0.15200
H3068       H  0.90421091  0.26929246  0.39913030     0.15200
C3069       C  0.89012024  0.26123617  0.41229680     0.36800
C3070       C  0.92073372  0.23825966  0.38865549     0.36700
N3071       N  0.88376770  0.26596298  0.41686319    -0.43500
N3072       N  0.92674778  0.23343832  0.38374079    -0.43500
C3073       C  0.11079380  0.59654697  0.76173808     0.00100
C3074       C  0.10043366  0.59325203  0.75956435    -0.11800
C3075       C  0.09329815  0.59976973  0.75416481     0.02300
C3076       C  0.09642153  0.60996625  0.75079003     0.00000
C3077       C  0.10684966  0.61320658  0.75281973    -0.11700
C3078       C  0.11399940  0.60664969  0.75822040     0.02200
H3079       H  0.09784180  0.58550735  0.76213146     0.15200
H3080       H  0.10944063  0.62094379  0.75023728     0.15200
C3081       C  0.12468337  0.61034531  0.75960478     0.36800
C3082       C  0.08299526  0.59549768  0.75184464     0.36700
N3083       N  0.13324777  0.61334110  0.76066034    -0.43500
N3084       N  0.07476333  0.59198047  0.75002753    -0.43500
C3085       C  0.07646858  0.68716802  0.67399446     0.00100
C3086       C  0.07014275  0.67808288  0.67441942    -0.11800
C3087       C  0.07054590  0.67123291  0.68305737     0.02300
C3088       C  0.07735067  0.67340278  0.69158907     0.00000
C3089       C  0.08417919  0.68211525  0.69093512    -0.11700
C3090       C  0.08379854  0.68900291  0.68220899     0.02200
H3091       H  0.06459807  0.67649278  0.66809830     0.15200
H3092       H  0.08935826  0.68388665  0.69750833     0.15200
C3093       C  0.09034605  0.69832381  0.68231242     0.36800
C3094       C  0.06366167  0.66214273  0.68313068     0.36700
N3095       N  0.09557563  0.70581446  0.68239518    -0.43500
N3096       N  0.05816134  0.65485059  0.68322361    -0.43500
C3097       C  0.13340868  0.77429852  0.51642368     0.00100
C3098       C  0.13194769  0.78409216  0.51148556    -0.11800
C3099       C  0.13118124  0.78487588  0.50051762     0.02300
C3100       C  0.13216586  0.77573542  0.49418846     0.00000
C3101       C  0.13277696  0.76582556  0.49915753    -0.11700
C3102       C  0.13336871  0.76504100  0.51021390     0.02200
H3103       H  0.13161497  0.79121822  0.51622984     0.15200
H3104       H  0.13340610  0.75873636  0.49439848     0.15200
C3105       C  0.13471533  0.75475164  0.51491205     0.36800
C3106       C  0.12930927  0.79517717  0.49599948     0.36700
N3107       N  0.13579076  0.74649129  0.51866394    -0.43500
N3108       N  0.12776783  0.80344204  0.49242225    -0.43500
C3109       C  0.11229533  0.75759821  0.59904892     0.00100
C3110       C  0.11247127  0.74652529  0.59946267    -0.11800
C3111       C  0.10560053  0.74095053  0.60611098     0.02300
C3112       C  0.09812959  0.74646497  0.61229594     0.00000
C3113       C  0.09793828  0.75755110  0.61187272    -0.11700
C3114       C  0.10504077  0.76314139  0.60545197     0.02200
H3115       H  0.11800087  0.74220762  0.59454345     0.15200
H3116       H  0.09222669  0.76185584  0.61658866     0.15200
C3117       C  0.10441237  0.77452145  0.60522559     0.36800
C3118       C  0.10607578  0.72956096  0.60606361     0.36700
N3119       N  0.10392443  0.78364563  0.60505037    -0.43500
N3120       N  0.10647781  0.72043133  0.60603750    -0.43500
C3121       C  0.28784557  0.62612995  0.99320978     0.00100
C3122       C  0.27822521  0.62772514  0.99849217    -0.11800
C3123       C  0.27782366  0.62829934  0.00956268     0.02300
C3124       C  0.28716824  0.62706866  0.01553524     0.00000
C3125       C  0.29667773  0.62500209  0.01022541    -0.11700
C3126       C  0.29710020  0.62452122  0.99921637     0.02200
H3127       H  0.27110109  0.62907929  0.99394936     0.15200
H3128       H  0.30387847  0.62384714  0.01470444     0.15200
C3129       C  0.30715228  0.62225199  0.99431611     0.36800
C3130       C  0.26790160  0.63097422  0.01448772     0.36700
N3131       N  0.31522179  0.62044508  0.99042145    -0.43500
N3132       N  0.25994892  0.63317789  0.01841742    -0.43500
C3133       C  0.18561602  0.57669985  0.84075138     0.00100
C3134       C  0.18658766  0.58304635  0.83171327    -0.11800
C3135       C  0.17858785  0.58320629  0.82400450     0.02300
C3136       C  0.16942436  0.57698998  0.82537620     0.00000
C3137       C  0.16812485  0.57139824  0.83484789    -0.11700
C3138       C  0.17607074  0.57122584  0.84249813     0.02200
H3139       H  0.19390854  0.58725170  0.83029779     0.15200
H3140       H  0.16103651  0.56675114  0.83607604     0.15200
C3141       C  0.17434933  0.56512590  0.85197480     0.36800
C3142       C  0.18043351  0.58895868  0.81435553     0.36700
N3143       N  0.17295123  0.56025396  0.85957189    -0.43500
N3144       N  0.18193086  0.59354096  0.80659959    -0.43500
C3145       C  0.26397281  0.60819505  0.91038277     0.00100
C3146       C  0.25294855  0.60747554  0.91142452    -0.11800
C3147       C  0.24693844  0.60130772  0.90444738     0.02300
C3148       C  0.25197684  0.59553982  0.89635200     0.00000
C3149       C  0.26299627  0.59614321  0.89537746    -0.11700
C3150       C  0.26899446  0.60246230  0.90222208     0.02200
H3151       H  0.24901351  0.61175999  0.91771043     0.15200
H3152       H  0.26693657  0.59160350  0.88927417     0.15200
C3153       C  0.28033089  0.60245764  0.90104660     0.36800
C3154       C  0.23567831  0.60060668  0.90606643     0.36700
N3155       N  0.28942076  0.60242465  0.90011838    -0.43500
N3156       N  0.22665498  0.59999702  0.90736586    -0.43500
C3157       C  0.36438505  0.73887079  0.99276713     0.00100
C3158       C  0.37415563  0.74057932  0.99772462    -0.11800
C3159       C  0.37512549  0.73993772  0.00874533     0.02300
C3160       C  0.36618588  0.73754831  0.01497559     0.00000
C3161       C  0.35630500  0.73666667  0.01006325    -0.11700
C3162       C  0.35531340  0.73742704  0.99909900     0.02200
H3163       H  0.38117224  0.74176102  0.99296303     0.15200
H3164       H  0.34934236  0.73512799  0.01481010     0.15200
C3165       C  0.34487893  0.73671387  0.99456835     0.36800
C3166       C  0.38550717  0.74087907  0.01332623     0.36700
N3167       N  0.33650632  0.73617886  0.99096043    -0.43500
N3168       N  0.39384638  0.74162570  0.01697127    -0.43500
C3169       C  0.34139791  0.68446601  0.93202358     0.00100
C3170       C  0.33318775  0.68430287  0.92458485    -0.11800
C3171       C  0.32594580  0.67586201  0.92427563     0.02300
C3172       C  0.32698461  0.66736282  0.93145769     0.00000
C3173       C  0.33577726  0.66720732  0.93822500    -0.11700
C3174       C  0.34286481  0.67564199  0.93862448     0.02200
H3175       H  0.33200635  0.69109196  0.91950700     0.15200
H3176       H  0.33691654  0.66062098  0.94357052     0.15200
C3177       C  0.35143430  0.67519189  0.94612786     0.36800
C3178       C  0.31712196  0.67659286  0.91713052     0.36700
N3179       N  0.35828691  0.67483741  0.95214958    -0.43500
N3180       N  0.31006640  0.67724787  0.91137280    -0.43500
C3181       C  0.40918155  0.76269231  0.89844831     0.00100
C3182       C  0.40086590  0.76799571  0.90351459    -0.11800
C3183       C  0.39395677  0.76258432  0.91027016     0.02300
C3184       C  0.39516461  0.75160544  0.91184051     0.00000
C3185       C  0.40319426  0.74623385  0.90642616    -0.11700
C3186       C  0.41025111  0.75167430  0.89987461     0.02200
H3187       H  0.39994142  0.77643996  0.90242491     0.15200
H3188       H  0.40413118  0.73779267  0.90753885     0.15200
C3189       C  0.41840525  0.74572036  0.89457006     0.36800
C3190       C  0.38557295  0.76843231  0.91532813     0.36700
N3191       N  0.42496219  0.74096610  0.89033141    -0.43500
N3192       N  0.37884795  0.77311571  0.91937873    -0.43500
C3193       C  0.23485592  0.86894910  0.49342761     0.00100
C3194       C  0.23564020  0.85927384  0.49874947    -0.11800
C3195       C  0.23586854  0.85882020  0.50977108     0.02300
C3196       C  0.23512230  0.86820329  0.51577420     0.00000
C3197       C  0.23492804  0.87794889  0.51046063    -0.11700
C3198       C  0.23475657  0.87838881  0.49936571     0.02200
H3199       H  0.23591707  0.85198730  0.49425191     0.15200
H3200       H  0.23434863  0.88520445  0.51496994     0.15200
C3201       C  0.23363368  0.88853786  0.49431776     0.36800
C3202       C  0.23700231  0.84859416  0.51468823     0.36700
N3203       N  0.23268279  0.89667610  0.49027736    -0.43500
N3204       N  0.23792889  0.84039340  0.51860810    -0.43500
C3205       C  0.19278377  0.82995504  0.57839447     0.00100
C3206       C  0.19492912  0.82018545  0.57362984    -0.11800
C3207       C  0.18736244  0.81216901  0.57336052     0.02300
C3208       C  0.17729429  0.81383173  0.57785345     0.00000
C3209       C  0.17541325  0.82324936  0.58343822    -0.11700
C3210       C  0.18307651  0.83131943  0.58373671     0.02200
H3211       H  0.20245749  0.81894308  0.56973013     0.15200
H3212       H  0.16773241  0.82457791  0.58698376     0.15200
C3213       C  0.18045987  0.84118299  0.58880578     0.36800
C3214       C  0.19010777  0.80233450  0.56827090     0.36700
N3215       N  0.17834994  0.84909064  0.59287524    -0.43500
N3216       N  0.19231633  0.79445578  0.56419891    -0.43500
C3217       C  0.24764217  0.89707701  0.59799971     0.00100
C3218       C  0.25095814  0.90701150  0.59430319    -0.11800
C3219       C  0.25637076  0.91411801  0.60084524     0.02300
C3220       C  0.25859244  0.91138413  0.61144128     0.00000
C3221       C  0.25528570  0.90147731  0.61515071    -0.11700
C3222       C  0.24987958  0.89436194  0.60860660     0.02200
H3223       H  0.24934379  0.90927130  0.58621482     0.15200
H3224       H  0.25692855  0.89925226  0.62324649     0.15200
C3225       C  0.24720090  0.88418828  0.61296238     0.36800
C3226       C  0.25995636  0.92391507  0.59624749     0.36700
N3227       N  0.24510081  0.87606130  0.61656928    -0.43500
N3228       N  0.26280922  0.93174628  0.59250146    -0.43500
C3229       C  0.32815588  0.92687786  0.69632754     0.00100
C3230       C  0.32983001  0.92114056  0.68697270    -0.11800
C3231       C  0.32214842  0.92103625  0.67893119     0.02300
C3232       C  0.31267183  0.92679793  0.68023962     0.00000
C3233       C  0.31063410  0.93156356  0.69002811    -0.11700
C3234       C  0.31819006  0.93156791  0.69804798     0.02200
H3235       H  0.33740807  0.91738499  0.68562758     0.15200
H3236       H  0.30324233  0.93571983  0.69126132     0.15200
C3237       C  0.31558939  0.93666376  0.70791452     0.36800
C3238       C  0.32455325  0.91571467  0.66915539     0.36700
N3239       N  0.31348935  0.94072227  0.71582553    -0.43500
N3240       N  0.32649706  0.91140168  0.66133955    -0.43500
C3241       C  0.43111125  0.84189290  0.82496615     0.00100
C3242       C  0.42538355  0.83252548  0.82342115    -0.11800
C3243       C  0.42511548  0.82468534  0.83127483     0.02300
C3244       C  0.43059092  0.82626812  0.84085018     0.00000
C3245       C  0.43551389  0.83601391  0.84267967    -0.11700
C3246       C  0.43577013  0.84380865  0.83489314     0.02200
H3247       H  0.42177886  0.83100111  0.81581443     0.15200
H3248       H  0.43954693  0.83738691  0.85010247     0.15200
C3249       C  0.44106973  0.85363659  0.83721740     0.36800
C3250       C  0.42004708  0.81476112  0.82892229     0.36700
N3251       N  0.44530314  0.86151202  0.83909151    -0.43500
N3252       N  0.41600558  0.80679713  0.82700128    -0.43500
C3253       C  0.41252942  0.89466862  0.75704239     0.00100
C3254       C  0.41618501  0.90460087  0.75372054    -0.11800
C3255       C  0.40956198  0.91173605  0.74848804     0.02300
C3256       C  0.39888834  0.90909260  0.74655839     0.00000
C3257       C  0.39527508  0.89906124  0.74964211    -0.11700
C3258       C  0.40195498  0.89186112  0.75478787     0.02200
H3259       H  0.42427686  0.90689489  0.75527925     0.15200
H3260       H  0.38715694  0.89683849  0.74809921     0.15200
C3261       C  0.39781528  0.88153193  0.75724114     0.36800
C3262       C  0.41415172  0.92149409  0.74480075     0.36700
N3263       N  0.39444741  0.87325451  0.75914764    -0.43500
N3264       N  0.41791355  0.92927707  0.74184290    -0.43500
C3265       C  0.99306789  0.64199561  0.73770315     0.00100
C3266       C  0.99883815  0.65126111  0.73956071    -0.11800
C3267       C  0.00987091  0.65122281  0.73957757     0.02300
C3268       C  0.01544522  0.64175521  0.73761919     0.00000
C3269       C  0.00971547  0.63235804  0.73623844    -0.11700
C3270       C  0.99861003  0.63240494  0.73620102     0.02200
H3271       H  0.99469363  0.65863079  0.74094951     0.15200
H3272       H  0.01391181  0.62505262  0.73468967     0.15200
C3273       C  0.99317723  0.62266944  0.73385163     0.36800
C3274       C  0.01524998  0.66101922  0.74182487     0.36700
N3275       N  0.98884460  0.61485902  0.73192834    -0.43500
N3276       N  0.01954409  0.66887721  0.74363041    -0.43500
C3277       C  0.90010814  0.59659359  0.76068225     0.00100
C3278       C  0.89584015  0.60659971  0.75842530    -0.11800
C3279       C  0.90168139  0.61426622  0.75292695     0.02300
C3280       C  0.91209747  0.61202324  0.74958977     0.00000
C3281       C  0.91630380  0.60198367  0.75173957    -0.11700
C3282       C  0.91049158  0.59432777  0.75720962     0.02200
H3283       H  0.88789842  0.60848156  0.76101687     0.15200
H3284       H  0.92427848  0.60011536  0.74923469     0.15200
C3285       C  0.91570373  0.58447609  0.75960800     0.36800
C3286       C  0.89694653  0.62450713  0.75133719     0.36700
N3287       N  0.91997118  0.57661451  0.76148471    -0.43500
N3288       N  0.89310465  0.63270648  0.75009626    -0.43500
C3289       C  0.99249997  0.73373086  0.63644430     0.00100
C3290       C  0.99841654  0.73475764  0.64576265    -0.11800
C3291       C  0.00941783  0.73388685  0.64569322     0.02300
C3292       C  0.01481370  0.73205599  0.63612818     0.00000
C3293       C  0.00903165  0.73165663  0.62669466    -0.11700
C3294       C  0.99794536  0.73237154  0.62677355     0.02200
H3295       H  0.99440582  0.73602389  0.65322061     0.15200
H3296       H  0.01313571  0.73019277  0.61932292     0.15200
C3297       C  0.99240787  0.73083031  0.61695215     0.36800
C3298       C  0.01499369  0.73490414  0.65557884     0.36700
N3299       N  0.98801644  0.72954080  0.60905310    -0.43500
N3300       N  0.01946694  0.73571230  0.66349482    -0.43500
C3301       C  0.93097068  0.69506895  0.67912893     0.00100
C3302       C  0.93435207  0.69854842  0.68907468    -0.11800
C3303       C  0.93420074  0.69183796  0.69782756     0.02300
C3304       C  0.93077168  0.68128244  0.69672920     0.00000
C3305       C  0.92667544  0.67798652  0.68695968    -0.11700
C3306       C  0.92675318  0.68478624  0.67816766     0.02200
H3307       H  0.93737566  0.70651349  0.68996139     0.15200
H3308       H  0.92400568  0.66990693  0.68602224     0.15200
C3309       C  0.92326161  0.68074876  0.66811417     0.36800
C3310       C  0.93762421  0.69601541  0.70786276     0.36700
N3311       N  0.92047048  0.67748914  0.66005539    -0.43500
N3312       N  0.94033617  0.69940169  0.71589658    -0.43500
C3313       C  0.87603312  0.77506689  0.51360000     0.00100
C3314       C  0.87512518  0.76598994  0.50729804    -0.11800
C3315       C  0.87636884  0.76655803  0.49626734     0.02300
C3316       C  0.87878992  0.77634022  0.49142160     0.00000
C3317       C  0.88027647  0.78523726  0.49787574    -0.11700
C3318       C  0.87887002  0.78470648  0.50879834     0.02200
H3319       H  0.87288212  0.75856867  0.51093019     0.15200
H3320       H  0.88235104  0.79275555  0.49434534     0.15200
C3321       C  0.88037727  0.79422260  0.51490197     0.36800
C3322       C  0.87429858  0.75719113  0.49012823     0.36700
N3323       N  0.88155638  0.80185293  0.51978635    -0.43500
N3324       N  0.87257898  0.74966516  0.48524128    -0.43500
C3325       C  0.89479249  0.75578035  0.59641863     0.00100
C3326       C  0.89709869  0.74498850  0.59517302    -0.11800
C3327       C  0.90416266  0.73981277  0.60194422     0.02300
C3328       C  0.90922650  0.74547663  0.61005957     0.00000
C3329       C  0.90700950  0.75625903  0.61130905    -0.11700
C3330       C  0.89979857  0.76142029  0.60465625     0.02200
H3331       H  0.89335583  0.74056349  0.58887810     0.15200
H3332       H  0.91096312  0.76066846  0.61748782     0.15200
C3333       C  0.89811550  0.77259355  0.60616471     0.36800
C3334       C  0.90641226  0.72878131  0.60015583     0.36700
N3335       N  0.89680303  0.78155254  0.60741402    -0.43500
N3336       N  0.90824363  0.71994696  0.59869898    -0.43500
C3337       C  0.72857383  0.62724561  0.99425532     0.00100
C3338       C  0.71880324  0.62523381  0.99905054    -0.11800
C3339       C  0.71789765  0.62430523  0.00999450     0.02300
C3340       C  0.72688229  0.62565286  0.01646183     0.00000
C3341       C  0.73680165  0.62694478  0.01163795    -0.11700
C3342       C  0.73771756  0.62772191  0.00060614     0.02200
H3343       H  0.71178055  0.62452469  0.99420755     0.15200
H3344       H  0.74377684  0.62787804  0.01650108     0.15200
C3345       C  0.74798680  0.62972936  0.99609502     0.36800
C3346       C  0.70764889  0.62180053  0.01432259     0.36700
N3347       N  0.75622970  0.63133115  0.99249083    -0.43500
N3348       N  0.69942838  0.61976409  0.01775376    -0.43500
C3349       C  0.82590939  0.57485127  0.84030219     0.00100
C3350       C  0.82549417  0.58227853  0.83206333    -0.11800
C3351       C  0.83354279  0.58273064  0.82438235     0.02300
C3352       C  0.84218292  0.57568055  0.82495863     0.00000
C3353       C  0.84297557  0.56895575  0.83372001    -0.11700
C3354       C  0.83501187  0.56848079  0.84132249     0.02200
H3355       H  0.81858656  0.58727305  0.83125361     0.15200
H3356       H  0.84972079  0.56372222  0.83444295     0.15200
C3357       C  0.83636955  0.56123576  0.85002235     0.36800
C3358       C  0.83232924  0.58990445  0.81563042     0.36700
N3359       N  0.83747671  0.55539307  0.85695365    -0.43500
N3360       N  0.83133357  0.59568394  0.80863028    -0.43500
C3361       C  0.76120521  0.59611775  0.89746736     0.00100
C3362       C  0.75877755  0.59242424  0.90762989    -0.11800
C3363       C  0.75334514  0.59871267  0.91491046     0.02300
C3364       C  0.75024996  0.60909190  0.91214886     0.00000
C3365       C  0.75254670  0.61275847  0.90192623    -0.11700
C3366       C  0.75797213  0.60640979  0.89461346     0.02200
H3367       H  0.76114838  0.58453120  0.90995116     0.15200
H3368       H  0.75015441  0.62065457  0.89964086     0.15200
C3369       C  0.75969637  0.61051942  0.88413642     0.36800
C3370       C  0.75067968  0.59401792  0.92494669     0.36700
N3371       N  0.76103344  0.61384980  0.87573907    -0.43500
N3372       N  0.74859092  0.59014938  0.93295323    -0.43500
C3373       C  0.63695491  0.72884423  0.99679016     0.00100
C3374       C  0.64650360  0.72711540  0.00217426    -0.11800
C3375       C  0.64688533  0.72663016  0.01317837     0.02300
C3376       C  0.63757710  0.72795769  0.01914164     0.00000
C3377       C  0.62816049  0.73051619  0.01389295    -0.11700
C3378       C  0.62774759  0.73092560  0.00280158     0.02200
H3379       H  0.65374256  0.72592459  0.99775999     0.15200
H3380       H  0.62098822  0.73164015  0.01843894     0.15200
C3381       C  0.61764688  0.73282174  0.99791162     0.36800
C3382       C  0.65698417  0.72481907  0.01815027     0.36700
N3383       N  0.60949336  0.73436957  0.99409805    -0.43500
N3384       N  0.66508143  0.72337906  0.02212056    -0.43500
C3385       C  0.67668148  0.68931682  0.93345032     0.00100
C3386       C  0.67522617  0.68039647  0.92700041    -0.11800
C3387       C  0.68287996  0.67231816  0.92663451     0.02300
C3388       C  0.69212062  0.67314912  0.93280415     0.00000
C3389       C  0.69390768  0.68244519  0.93853206    -0.11700
C3390       C  0.68638511  0.69051757  0.93881683     0.02200
H3391       H  0.66784004  0.67941189  0.92279820     0.15200
H3392       H  0.70109010  0.68324620  0.94312117     0.15200
C3393       C  0.68879146  0.69991905  0.94480828     0.36800
C3394       C  0.68069715  0.66291042  0.92059818     0.36700
N3395       N  0.69073031  0.70745437  0.94959606    -0.43500
N3396       N  0.67896689  0.65535209  0.91576761    -0.43500
C3397       C  0.51430455  0.78280124  0.88325582     0.00100
C3398       C  0.50954017  0.79280307  0.88330001    -0.11800
C3399       C  0.49857692  0.79392902  0.88322346     0.02300
C3400       C  0.49204981  0.78488855  0.88287496     0.00000
C3401       C  0.49676919  0.77486076  0.88365843    -0.11700
C3402       C  0.50781786  0.77374812  0.88388452     0.02200
H3403       H  0.51443724  0.79982873  0.88320886     0.15200
H3404       H  0.49185170  0.76785620  0.88357434     0.15200
C3405       C  0.51223255  0.76324510  0.88408341     0.36800
C3406       C  0.49429845  0.80449555  0.88365603     0.36700
N3407       N  0.51573421  0.75480460  0.88428493    -0.43500
N3408       N  0.49090978  0.81297747  0.88401522    -0.43500
C3409       C  0.59616621  0.75633724  0.90080306     0.00100
C3410       C  0.59261198  0.75327492  0.91085514    -0.11800
C3411       C  0.59902911  0.74749223  0.91774615     0.02300
C3412       C  0.60944872  0.74475616  0.91477700     0.00000
C3413       C  0.61294780  0.74755079  0.90462114    -0.11700
C3414       C  0.60644001  0.75323220  0.89764188     0.02200
H3415       H  0.58474373  0.75544001  0.91343473     0.15200
H3416       H  0.62084660  0.74536960  0.90213560     0.15200
C3417       C  0.61040791  0.75534561  0.88717799     0.36800
C3418       C  0.59444140  0.74408088  0.92760467     0.36700
N3419       N  0.61363078  0.75697695  0.87878734    -0.43500
N3420       N  0.59068709  0.74134459  0.93547009    -0.43500
C3421       C  0.51703507  0.87667016  0.78153179     0.00100
C3422       C  0.51159645  0.87874922  0.79093664    -0.11800
C3423       C  0.50058813  0.87939036  0.79113024     0.02300
C3424       C  0.49474128  0.87766016  0.78179340     0.00000
C3425       C  0.50020466  0.87632061  0.77222537    -0.11700
C3426       C  0.51129560  0.87583011  0.77202708     0.02200
H3427       H  0.51598098  0.87967584  0.79822853     0.15200
H3428       H  0.49580794  0.87506488  0.76499723     0.15200
C3429       C  0.51653184  0.87365789  0.76214488     0.36800
C3430       C  0.49552056  0.88191776  0.80102990     0.36700
N3431       N  0.52073489  0.87190265  0.75422470    -0.43500
N3432       N  0.49148071  0.88397414  0.80896335    -0.43500
C3433       C  0.57681018  0.82994691  0.82025817     0.00100
C3434       C  0.58362896  0.83121198  0.82891649    -0.11800
C3435       C  0.58378266  0.82376549  0.83716406     0.02300
C3436       C  0.57707374  0.81487847  0.83673990     0.00000
C3437       C  0.57096161  0.81320790  0.82767562    -0.11700
C3438       C  0.57082329  0.82056436  0.81946168     0.02200
H3439       H  0.58830165  0.83835159  0.82958918     0.15200
H3440       H  0.56594060  0.80628536  0.82719051     0.15200
C3441       C  0.56433094  0.81832399  0.81036728     0.36800
C3442       C  0.59014768  0.82589151  0.84635415     0.36700
N3443       N  0.55911749  0.81649842  0.80309880    -0.43500
N3444       N  0.59522930  0.82760590  0.85374049    -0.43500
C3445       C  0.60057733  0.89452307  0.76437015     0.00100
C3446       C  0.60029207  0.89471445  0.75329036    -0.11800
C3447       C  0.60701108  0.90135403  0.74750828     0.02300
C3448       C  0.61401981  0.90816856  0.75283377     0.00000
C3449       C  0.61433348  0.90796995  0.76390656    -0.11700
C3450       C  0.60779702  0.90113799  0.76968761     0.02200
H3451       H  0.59473445  0.88970307  0.74913630     0.15200
H3452       H  0.61967781  0.91321458  0.76805280     0.15200
C3453       C  0.60826584  0.90148483  0.78106051     0.36800
C3454       C  0.60617401  0.90142052  0.73615075     0.36700
N3455       N  0.60864991  0.90178199  0.79017800    -0.43500
N3456       N  0.60547190  0.90147773  0.72704817    -0.43500
C3457       C  0.69633892  0.92825719  0.68235633     0.00100
C3458       C  0.69854793  0.93363228  0.69177319    -0.11800
C3459       C  0.69136676  0.93367409  0.70015560     0.02300
C3460       C  0.68156213  0.92843449  0.69915638     0.00000
C3461       C  0.67973121  0.92226634  0.69011105    -0.11700
C3462       C  0.68705181  0.92211812  0.68173157     0.02200
H3463       H  0.70579712  0.93814202  0.69244759     0.15200
H3464       H  0.67229417  0.91811410  0.68928613     0.15200
C3465       C  0.68445810  0.91631385  0.67229149     0.36800
C3466       C  0.69424924  0.93927266  0.70966029     0.36700
N3467       N  0.68237248  0.91163898  0.66473002    -0.43500
N3468       N  0.69658382  0.94375480  0.71726702    -0.43500
C3469       C  0.78473569  0.87852487  0.51668279     0.00100
C3470       C  0.77547270  0.87618489  0.51107571    -0.11800
C3471       C  0.77557572  0.87544867  0.50000019     0.02300
C3472       C  0.78505345  0.87725111  0.49437607     0.00000
C3473       C  0.79415329  0.88010020  0.50000057    -0.11700
C3474       C  0.79407204  0.88076081  0.51101267     0.02200
H3475       H  0.76831003  0.87430887  0.51537720     0.15200
H3476       H  0.80143391  0.88167172  0.49577163     0.15200
C3477       C  0.80371022  0.88374707  0.51631555     0.36800
C3478       C  0.76612112  0.87194063  0.49471554     0.36700
N3479       N  0.81143142  0.88614447  0.52055946    -0.43500
N3480       N  0.75855852  0.86904831  0.49049467    -0.43500
C3481       C  0.81601112  0.82962563  0.57627518     0.00100
C3482       C  0.81444655  0.82192248  0.56848262    -0.11800
C3483       C  0.82111728  0.81318167  0.56763821     0.02300
C3484       C  0.82975265  0.81204940  0.57461621     0.00000
C3485       C  0.83076370  0.81924289  0.58302348    -0.11700
C3486       C  0.82395585  0.82800123  0.58390694     0.02200
H3487       H  0.80815133  0.82292557  0.56276879     0.15200
H3488       H  0.83725512  0.81839681  0.58852790     0.15200
C3489       C  0.82579581  0.83559177  0.59219007     0.36800
C3490       C  0.81890147  0.80556327  0.55944732     0.36700
N3491       N  0.82726093  0.84167405  0.59884459    -0.43500
N3492       N  0.81709788  0.79950459  0.55285293    -0.43500
C3493       C  0.76302647  0.89701480  0.60005424     0.00100
C3494       C  0.75994295  0.89275497  0.60982826    -0.11800
C3495       C  0.75466507  0.89891929  0.61741801     0.02300
C3496       C  0.75222117  0.90961554  0.61526434     0.00000
C3497       C  0.75557869  0.91390802  0.60558480    -0.11700
C3498       C  0.76100870  0.90781955  0.59810585     0.02200
H3499       H  0.76161846  0.88453688  0.61154941     0.15200
H3500       H  0.75395897  0.92211132  0.60377465     0.15200
C3501       C  0.76489775  0.91308518  0.58877565     0.36800
C3502       C  0.75233460  0.89413731  0.62748349     0.36700
N3503       N  0.76805882  0.91736712  0.58135150    -0.43500
N3504       N  0.75054864  0.89025014  0.63555301    -0.43500
C3505       C  0.36903198  0.01348016  0.73441758     0.00100
C3506       C  0.37876145  0.00817823  0.73496152    -0.11800
C3507       C  0.37927203  0.99708060  0.73457753     0.02300
C3508       C  0.36987487  0.99107936  0.73370369     0.00000
C3509       C  0.36015573  0.99643352  0.73385554    -0.11700
C3510       C  0.35965121  0.00745625  0.73424113     0.02200
H3511       H  0.38601616  0.01272177  0.73516928     0.15200
H3512       H  0.35284825  0.99198492  0.73358351     0.15200
C3513       C  0.34935427  0.01235236  0.73462929     0.36800
C3514       C  0.38956178  0.99219671  0.73443137     0.36700
N3515       N  0.34110023  0.01626392  0.73494756    -0.43500
N3516       N  0.39785756  0.98836247  0.73433203    -0.43500
C3517       C  0.41213052  0.10735788  0.76287196     0.00100
C3518       C  0.40551090  0.10050068  0.76850907    -0.11800
C3519       C  0.39818947  0.09403258  0.76326771     0.02300
C3520       C  0.39718720  0.09455597  0.75215711     0.00000
C3521       C  0.40360980  0.10165615  0.74656237    -0.11700
C3522       C  0.41112659  0.10791340  0.75178985     0.02200
H3523       H  0.40618595  0.10007245  0.77702923     0.15200
H3524       H  0.40292699  0.10214031  0.73804767     0.15200
C3525       C  0.41755268  0.11503472  0.74564078     0.36800
C3526       C  0.39161706  0.08713500  0.76952176     0.36700
N3527       N  0.42270833  0.12075819  0.74073095    -0.43500
N3528       N  0.38636378  0.08160830  0.77455389    -0.43500
C3529       C  0.23841601  0.14189843  0.51413858     0.00100
C3530       C  0.23990322  0.15165224  0.50911845    -0.11800
C3531       C  0.24043898  0.15238779  0.49810747     0.02300
C3532       C  0.23929662  0.14321740  0.49182094     0.00000
C3533       C  0.23819347  0.13339735  0.49687133    -0.11700
C3534       C  0.23769982  0.13267244  0.50791578     0.02200
H3535       H  0.24060888  0.15876426  0.51383972     0.15200
H3536       H  0.23721763  0.12630573  0.49217867     0.15200
C3537       C  0.23564366  0.12248641  0.51258925     0.36800
C3538       C  0.24237679  0.16265166  0.49353872     0.36700
N3539       N  0.23393758  0.11433068  0.51633567    -0.43500
N3540       N  0.24393287  0.17089892  0.48992667    -0.43500
C3541       C  0.28022502  0.01425950  0.63546042     0.00100
C3542       C  0.28943701  0.00899763  0.63861881    -0.11800
C3543       C  0.28991447  0.99799419  0.63892059     0.02300
C3544       C  0.28090860  0.99196520  0.63629839     0.00000
C3545       C  0.27188253  0.99719459  0.63250121    -0.11700
C3546       C  0.27149090  0.00826770  0.63200528     0.02200
H3547       H  0.29634046  0.01352638  0.64088539     0.15200
H3548       H  0.26496975  0.99265325  0.63030812     0.15200
C3549       C  0.26186752  0.01323590  0.62847270     0.36800
C3550       C  0.29988290  0.99316484  0.64162223     0.36700
N3551       N  0.25413966  0.01716769  0.62559534    -0.43500
N3552       N  0.30791611  0.98936192  0.64373954    -0.43500
C3553       C  0.31791469  0.07736326  0.67596232     0.00100
C3554       C  0.31498066  0.07397664  0.68609395    -0.11800
C3555       C  0.32217403  0.07406735  0.69446643     0.02300
C3556       C  0.33262912  0.07757353  0.69283741     0.00000
C3557       C  0.33539980  0.08167858  0.68291068    -0.11700
C3558       C  0.32815096  0.08156415  0.67446881     0.02200
H3559       H  0.30710224  0.07088025  0.68739537     0.15200
H3560       H  0.34343939  0.08428319  0.68154506     0.15200
C3561       C  0.33172595  0.08486236  0.66417549     0.36800
C3562       C  0.31868610  0.07027282  0.70463563     0.36700
N3563       N  0.33462617  0.08746390  0.65591510    -0.43500
N3564       N  0.31586743  0.06724650  0.71277874    -0.43500
C3565       C  0.26576822  0.09530347  0.60610436     0.00100
C3566       C  0.26292702  0.10527668  0.61007691    -0.11800
C3567       C  0.25693635  0.11239669  0.60406160     0.02300
C3568       C  0.25361955  0.10961116  0.59378711     0.00000
C3569       C  0.25661950  0.09973054  0.58973589    -0.11700
C3570       C  0.26261670  0.09261515  0.59572230     0.02200
H3571       H  0.26530596  0.10751888  0.61797947     0.15200
H3572       H  0.25423304  0.09751211  0.58182430     0.15200
C3573       C  0.26571059  0.08282179  0.59076378     0.36800
C3574       C  0.25474891  0.12266558  0.60849124     0.36700
N3575       N  0.26812869  0.07500406  0.58668801    -0.43500
N3576       N  0.25305448  0.13090121  0.61207381    -0.43500
C3577       C  0.14342177  0.23502256  0.49376916     0.00100
C3578       C  0.15307014  0.23584416  0.49916189    -0.11800
C3579       C  0.15351653  0.23546011  0.51017330     0.02300
C3580       C  0.14414384  0.23429534  0.51609246     0.00000
C3581       C  0.13443193  0.23395805  0.51077493    -0.11700
C3582       C  0.13399258  0.23419671  0.49970456     0.02200
H3583       H  0.16035796  0.23667180  0.49474099     0.15200
H3584       H  0.12720278  0.23296926  0.51525925     0.15200
C3585       C  0.12385964  0.23276037  0.49471674     0.36800
C3586       C  0.16371320  0.23641002  0.51517835     0.36700
N3587       N  0.11571652  0.23155052  0.49076482    -0.43500
N3588       N  0.17189387  0.23715803  0.51916698    -0.43500
C3589       C  0.17475190  0.18581875  0.57832683     0.00100
C3590       C  0.17343031  0.17708204  0.57165410    -0.11800
C3591       C  0.18086718  0.16892950  0.57141259     0.02300
C3592       C  0.18992857  0.16947691  0.57784933     0.00000
C3593       C  0.19079796  0.17771385  0.58522309    -0.11700
C3594       C  0.18326778  0.18589012  0.58550739     0.02200
H3595       H  0.16681022  0.17688006  0.56623229     0.15200
H3596       H  0.19775840  0.17819844  0.59017398     0.15200
C3597       C  0.18499753  0.19473087  0.59247546     0.36800
C3598       C  0.17923017  0.16024279  0.56420675     0.36700
N3599       N  0.18638645  0.20183692  0.59804516    -0.43500
N3600       N  0.17790886  0.15325951  0.55846719    -0.43500
C3601       C  0.11525302  0.24888978  0.59743137     0.00100
C3602       C  0.10525666  0.25182008  0.59361914    -0.11800
C3603       C  0.09794968  0.25712103  0.60002559     0.02300
C3604       C  0.10047209  0.25949084  0.61063147     0.00000
C3605       C  0.11056905  0.25682234  0.61438531    -0.11700
C3606       C  0.11794937  0.25163359  0.60791146     0.02200
H3607       H  0.10309146  0.24995725  0.58555747     0.15200
H3608       H  0.11271469  0.25878275  0.62243117     0.15200
C3609       C  0.12838181  0.24975488  0.61208062     0.36800
C3610       C  0.08817745  0.26054076  0.59526879     0.36700
N3611       N  0.13676020  0.24832986  0.61542789    -0.43500
N3612       N  0.08039079  0.26333090  0.59139494    -0.43500
C3613       C  0.08097926  0.33496136  0.68880240     0.00100
C3614       C  0.08643707  0.33606034  0.67921027    -0.11800
C3615       C  0.08645309  0.32784267  0.67171491     0.02300
C3616       C  0.08097316  0.31836502  0.67386318     0.00000
C3617       C  0.07619538  0.31706153  0.68376739    -0.11700
C3618       C  0.07615808  0.32521618  0.69119507     0.02200
H3619       H  0.09006584  0.34357002  0.67728046     0.15200
H3620       H  0.07206609  0.30977019  0.68554150     0.15200
C3621       C  0.07076311  0.32352949  0.70109815     0.36800
C3622       C  0.09126738  0.32969543  0.66156040     0.36700
N3623       N  0.06643674  0.32218544  0.70903001    -0.43500
N3624       N  0.09509180  0.33120078  0.65340256    -0.43500
C3625       C  0.13843510  0.49192443  0.77815666     0.00100
C3626       C  0.12850890  0.49681411  0.77717246    -0.11800
C3627       C  0.12751135  0.50787419  0.77753454     0.02300
C3628       C  0.13656783  0.51422212  0.77892823     0.00000
C3629       C  0.14651082  0.50935251  0.77922529    -0.11700
C3630       C  0.14753508  0.49836852  0.77871641     0.02200
H3631       H  0.12146048  0.49198955  0.77665209     0.15200
H3632       H  0.15354718  0.51417342  0.77998609     0.15200
C3633       C  0.15806379  0.49398436  0.77860543     0.36800
C3634       C  0.11707408  0.51243112  0.77721800     0.36700
N3635       N  0.16652126  0.49052233  0.77848963    -0.43500
N3636       N  0.10869482  0.51606837  0.77696922    -0.43500
C3637       C  0.11227115  0.40951140  0.76247489     0.00100
C3638       C  0.11229233  0.41026549  0.75141537    -0.11800
C3639       C  0.10603998  0.40354943  0.74521902     0.02300
C3640       C  0.09938572  0.39606306  0.75009316     0.00000
C3641       C  0.09931248  0.39532629  0.76114494    -0.11700
C3642       C  0.10578226  0.40185211  0.76733981     0.02200
H3643       H  0.11722298  0.41613162  0.74759634     0.15200
H3644       H  0.09416483  0.38963726  0.76494663     0.15200
C3645       C  0.10523939  0.40085624  0.77867237     0.36800
C3646       C  0.10622888  0.40482109  0.73390178     0.36700
N3647       N  0.10480984  0.40005267  0.78775793    -0.43500
N3648       N  0.10636471  0.40583719  0.72482916    -0.43500
C3649       C  0.38377893  0.27951944  0.99000802     0.00100
C3650       C  0.38218358  0.26979171  0.99507771    -0.11800
C3651       C  0.38215480  0.26909569  0.00614510     0.02300
C3652       C  0.38380149  0.27827795  0.01228395     0.00000
C3653       C  0.38628387  0.28777610  0.00714081    -0.11700
C3654       C  0.38633974  0.28845823  0.99614120     0.02200
H3655       H  0.38031072  0.26286050  0.99041466     0.15200
H3656       H  0.38791572  0.29480500  0.01175186     0.15200
C3657       C  0.38905711  0.29844585  0.99135341     0.36800
C3658       C  0.37959169  0.25907327  0.01090958     0.36700
N3659       N  0.39126177  0.30644154  0.98752248    -0.43500
N3660       N  0.37753555  0.25101077  0.01468285    -0.43500
C3661       C  0.43406328  0.19283032  0.82924175     0.00100
C3662       C  0.42822901  0.18376047  0.83188891    -0.11800
C3663       C  0.42758305  0.17515885  0.82487079     0.02300
C3664       C  0.43280586  0.17563323  0.81503221     0.00000
C3665       C  0.43779141  0.18507183  0.81207335    -0.11700
C3666       C  0.43840816  0.19362710  0.81901082     0.02200
H3667       H  0.42476423  0.18310978  0.83968809     0.15200
H3668       H  0.44162523  0.18560406  0.80443280     0.15200
C3669       C  0.44367190  0.20309919  0.81545725     0.36800
C3670       C  0.42232830  0.16565549  0.82830390     0.36700
N3671       N  0.44787975  0.21069364  0.81261379    -0.43500
N3672       N  0.41812092  0.15802812  0.83105735    -0.43500
C3673       C  0.41279301  0.24910538  0.89318519     0.00100
C3674       C  0.41220759  0.26016736  0.89341468    -0.11800
C3675       C  0.40504361  0.26536112  0.90006749     0.02300
C3676       C  0.39846416  0.25944525  0.90685209     0.00000
C3677       C  0.39906270  0.24838084  0.90663847    -0.11700
C3678       C  0.40604192  0.24318069  0.89978937     0.02200
H3679       H  0.41738274  0.26476862  0.88837754     0.15200
H3680       H  0.39408006  0.24378917  0.91187430     0.15200
C3681       C  0.40647417  0.23179144  0.90006509     0.36800
C3682       C  0.40498725  0.27676108  0.90014598     0.36700
N3683       N  0.40682056  0.22266201  0.90028707    -0.43500
N3684       N  0.40494350  0.28589927  0.90020678    -0.43500
C3685       C  0.28982717  0.38193316  0.99303495     0.00100
C3686       C  0.28055917  0.37985827  0.99876161    -0.11800
C3687       C  0.28054140  0.38006470  0.00984322     0.02300
C3688       C  0.28993373  0.38246169  0.01536424     0.00000
C3689       C  0.29900779  0.38513829  0.00959500    -0.11700
C3690       C  0.29901194  0.38498401  0.99855939     0.02200
H3691       H  0.27345688  0.37753029  0.99459617     0.15200
H3692       H  0.30619970  0.38721281  0.01374648     0.15200
C3693       C  0.30851330  0.38815483  0.99310669     0.36800
C3694       C  0.27102414  0.37698154  0.01529624     0.36700
N3695       N  0.31610787  0.39072846  0.98872535    -0.43500
N3696       N  0.26339111  0.37448125  0.01965253    -0.43500
C3697       C  0.32848554  0.34065513  0.92958237     0.00100
C3698       C  0.32583857  0.33095343  0.92489155    -0.11800
C3699       C  0.33311060  0.32255937  0.92472000     0.02300
C3700       C  0.34316849  0.32385893  0.92932251     0.00000
C3701       C  0.34606830  0.33379970  0.93320979    -0.11700
C3702       C  0.33890539  0.34220064  0.93323806     0.02200
H3703       H  0.31788486  0.32969820  0.92199697     0.15200
H3704       H  0.35387818  0.33491125  0.93653695     0.15200
C3705       C  0.34243523  0.35232187  0.93712893     0.36800
C3706       C  0.32978052  0.31246719  0.92061554     0.36700
N3707       N  0.34527689  0.36044386  0.94019906    -0.43500
N3708       N  0.32713045  0.30436061  0.91734139    -0.43500
C3709       C  0.23185966  0.49115590  0.87497276     0.00100
C3710       C  0.22205710  0.49614486  0.87377574    -0.11800
C3711       C  0.22115028  0.50713623  0.87397757     0.02300
C3712       C  0.23027884  0.51349370  0.87503391     0.00000
C3713       C  0.24001827  0.50849526  0.87696503    -0.11700
C3714       C  0.24085712  0.49740680  0.87702493     0.02200
H3715       H  0.21502312  0.49140046  0.87261330     0.15200
H3716       H  0.24706638  0.51323519  0.87799594     0.15200
C3717       C  0.25110216  0.49268682  0.87862052     0.36800
C3718       C  0.21066651  0.51157930  0.87335909     0.36700
N3719       N  0.25931779  0.48891389  0.87994680    -0.43500
N3720       N  0.20223517  0.51507306  0.87288578    -0.43500
C3721       C  0.17619304  0.42822927  0.82018644     0.00100
C3722       C  0.18632935  0.43102207  0.81672870    -0.11800
C3723       C  0.19494070  0.43081815  0.82361664     0.02300
C3724       C  0.19347449  0.42793049  0.83427083     0.00000
C3725       C  0.18351063  0.42429371  0.83753749    -0.11700
C3726       C  0.17486015  0.42444160  0.83057573     0.02200
H3727       H  0.18744112  0.43377778  0.80869954     0.15200
H3728       H  0.18231200  0.42204549  0.84570597     0.15200
C3729       C  0.16456648  0.42156525  0.83451985     0.36800
C3730       C  0.20519447  0.43377445  0.81959805     0.36700
N3731       N  0.15631295  0.41928118  0.83770494    -0.43500
N3732       N  0.21341777  0.43609143  0.81635946    -0.43500
C3733       C  0.24894029  0.40876366  0.89965113     0.00100
C3734       C  0.25942746  0.40646065  0.89698545    -0.11800
C3735       C  0.26545987  0.39949577  0.90311226     0.02300
C3736       C  0.26098851  0.39476483  0.91219191     0.00000
C3737       C  0.25045302  0.39711393  0.91481726    -0.11700
C3738       C  0.24441533  0.40400254  0.90861365     0.02200
H3739       H  0.26294736  0.41021596  0.89014182     0.15200
H3740       H  0.24693501  0.39360336  0.92178615     0.15200
C3741       C  0.23374546  0.40641227  0.91183015     0.36800
C3742       C  0.27635732  0.39787285  0.90019540     0.36700
N3743       N  0.22520973  0.40838075  0.91443618    -0.43500
N3744       N  0.28509100  0.39661922  0.89781180    -0.43500
C3745       C  0.73150900  0.99100658  0.63591998     0.00100
C3746       C  0.72194186  0.99624693  0.63406656    -0.11800
C3747       C  0.72162677  0.00720521  0.63278087     0.02300
C3748       C  0.73100448  0.01318755  0.63359193     0.00000
C3749       C  0.74067050  0.00790094  0.63480727    -0.11700
C3750       C  0.74099041  0.99687408  0.63598768     0.02200
H3751       H  0.71465591  0.99175972  0.63373700     0.15200
H3752       H  0.74790253  0.01243157  0.63546921     0.15200
C3753       C  0.75101475  0.99189376  0.63811206     0.36800
C3754       C  0.71157424  0.01211285  0.63055290     0.36700
N3755       N  0.75904533  0.98790478  0.63986352    -0.43500
N3756       N  0.70352773  0.01603234  0.62871538    -0.43500
C3757       C  0.78399847  0.13030878  0.51592653     0.00100
C3758       C  0.77436639  0.12841887  0.51077969    -0.11800
C3759       C  0.77377509  0.12823802  0.49970326     0.02300
C3760       C  0.78298646  0.12991369  0.49361229     0.00000
C3761       C  0.79268978  0.13109305  0.49882299    -0.11700
C3762       C  0.79328251  0.13125958  0.50982544     0.02200
H3763       H  0.76720458  0.12760370  0.51540342     0.15200
H3764       H  0.79987948  0.13203272  0.49426489     0.15200
C3765       C  0.80357341  0.13226279  0.51462360     0.36800
C3766       C  0.76353682  0.12703719  0.49487177     0.36700
N3767       N  0.81183136  0.13305077  0.51844180    -0.43500
N3768       N  0.75530471  0.12606871  0.49103923    -0.43500
C3769       C  0.75259654  0.09552604  0.61270106     0.00100
C3770       C  0.74703279  0.10136952  0.60512223    -0.11800
C3771       C  0.75236509  0.10786443  0.59789164     0.02300
C3772       C  0.76347554  0.10887572  0.59839902     0.00000
C3773       C  0.76899199  0.10328787  0.60621432    -0.11700
C3774       C  0.76368804  0.09651983  0.61320634     0.02200
H3775       H  0.73851504  0.10062847  0.60466269     0.15200
H3776       H  0.77751169  0.10399386  0.60667916     0.15200
C3777       C  0.76978721  0.09077577  0.62092177     0.36800
C3778       C  0.74621889  0.11352035  0.59014579     0.36700
N3779       N  0.77467805  0.08615708  0.62709599    -0.43500
N3780       N  0.74128213  0.11801489  0.58391558    -0.43500
C3781       C  0.63988416  0.01319662  0.73707590     0.00100
C3782       C  0.64969499  0.00810320  0.73753361    -0.11800
C3783       C  0.65040175  0.99714089  0.73857922     0.02300
C3784       C  0.64111737  0.99092785  0.73881090     0.00000
C3785       C  0.63128040  0.99607794  0.73908297    -0.11700
C3786       C  0.63059928  0.00713770  0.73828193     0.02200
H3787       H  0.65688147  0.01272789  0.73696426     0.15200
H3788       H  0.62409145  0.99144597  0.73939071     0.15200
C3789       C  0.62028555  0.01197210  0.73800886     0.36800
C3790       C  0.66079591  0.99255236  0.73957513     0.36700
N3791       N  0.61201109  0.01584591  0.73781725    -0.43500
N3792       N  0.66914120  0.98892015  0.74039735    -0.43500
C3793       C  0.67583701  0.07436103  0.69009944     0.00100
C3794       C  0.67424543  0.08013072  0.68075274    -0.11800
C3795       C  0.68216146  0.08059531  0.67293591     0.02300
C3796       C  0.69183444  0.07526790  0.67449666     0.00000
C3797       C  0.69365637  0.07023026  0.68417642    -0.11700
C3798       C  0.68584368  0.06979408  0.69195001     0.02200
H3799       H  0.66660919  0.08370487  0.67927036     0.15200
H3800       H  0.70113281  0.06627063  0.68552804     0.15200
C3801       C  0.68829021  0.06448169  0.70173431     0.36800
C3802       C  0.67986143  0.08580044  0.66307912     0.36700
N3803       N  0.69025222  0.06022764  0.70957145    -0.43500
N3804       N  0.67802183  0.08995639  0.65516061    -0.43500
C3805       C  0.51756548  0.13012786  0.78175933     0.00100
C3806       C  0.51199761  0.12917151  0.79129183    -0.11800
C3807       C  0.50097053  0.12878167  0.79146001     0.02300
C3808       C  0.49523128  0.12938450  0.78194354     0.00000
C3809       C  0.50075275  0.12971554  0.77234582    -0.11700
C3810       C  0.51184459  0.13014056  0.77216971     0.02200
H3811       H  0.51628210  0.12888672  0.79869178     0.15200
H3812       H  0.49638419  0.13023462  0.76500844     0.15200
C3813       C  0.51704110  0.13140387  0.76211196     0.36800
C3814       C  0.49572546  0.12770689  0.80152654     0.36700
N3815       N  0.52116787  0.13244419  0.75402812    -0.43500
N3816       N  0.49153510  0.12681036  0.80959391    -0.43500
C3817       C  0.61247232  0.09557013  0.74829790     0.00100
C3818       C  0.60298076  0.09180863  0.75265328    -0.11800
C3819       C  0.59618598  0.09846771  0.75830497     0.02300
C3820       C  0.59879187  0.10923181  0.75971890     0.00000
C3821       C  0.60835300  0.11298042  0.75555269    -0.11700
C3822       C  0.61515410  0.10631028  0.74985986     0.02200
H3823       H  0.60079723  0.08359747  0.75161584     0.15200
H3824       H  0.61047887  0.12120211  0.75665447     0.15200
C3825       C  0.62497831  0.11066795  0.74609194     0.36800
C3826       C  0.58683385  0.09387620  0.76294264     0.36700
N3827       N  0.63284126  0.11422311  0.74308962    -0.43500
N3828       N  0.57936517  0.09014739  0.76665941    -0.43500
C3829       C  0.99539811  0.27812238  0.63357854     0.00100
C3830       C  0.00093058  0.28772486  0.63325765    -0.11800
C3831       C  0.01195806  0.28801283  0.63338827     0.02300
C3832       C  0.01780351  0.27852572  0.63388735     0.00000
C3833       C  0.01234464  0.26886716  0.63360011    -0.11700
C3834       C  0.00122355  0.26858640  0.63349793     0.02200
H3835       H  0.99660454  0.29511362  0.63300262     0.15200
H3836       H  0.01675650  0.26153545  0.63396404     0.15200
C3837       C  0.99605161  0.25845408  0.63403102     0.36800
C3838       C  0.01705276  0.29820139  0.63283853     0.36700
N3839       N  0.99194089  0.25030713  0.63448030    -0.43500
N3840       N  0.02110107  0.30637939  0.63238838    -0.43500
C3841       C  0.87827190  0.22356691  0.49047287     0.00100
C3842       C  0.87922289  0.23330218  0.49572112    -0.11800
C3843       C  0.87929285  0.23383645  0.50681974     0.02300
C3844       C  0.87846328  0.22448421  0.51285689     0.00000
C3845       C  0.87810650  0.21475187  0.50757304    -0.11700
C3846       C  0.87809261  0.21420028  0.49655050     0.02200
H3847       H  0.87939684  0.24054426  0.49116181     0.15200
H3848       H  0.87774657  0.20749220  0.51210038     0.15200
C3849       C  0.87808307  0.20386135  0.49172958     0.36800
C3850       C  0.87945651  0.24409831  0.51176047     0.36700
N3851       N  0.87808240  0.19556059  0.48790541    -0.43500
N3852       N  0.87955928  0.25234378  0.51569764    -0.43500
C3853       C  0.83584674  0.18989412  0.57815149     0.00100
C3854       C  0.82614751  0.19206301  0.57329707    -0.11800
C3855       C  0.81785716  0.18479742  0.57364137     0.02300
C3856       C  0.81925603  0.17494688  0.57868334     0.00000
C3857       C  0.82856757  0.17319048  0.58445862    -0.11700
C3858       C  0.83684382  0.18062880  0.58428239     0.02200
H3859       H  0.82518106  0.19932049  0.56885283     0.15200
H3860       H  0.82967644  0.16572287  0.58849147     0.15200
C3861       C  0.84653651  0.17819747  0.58973527     0.36800
C3862       C  0.80803300  0.18757727  0.56856842     0.36700
N3863       N  0.85429769  0.17627140  0.59414507    -0.43500
N3864       N  0.80015114  0.18981807  0.56453609    -0.43500
C3865       C  0.90075236  0.24679125  0.59523438     0.00100
C3866       C  0.90032388  0.25787263  0.59503553    -0.11800
C3867       C  0.90640152  0.26396126  0.60203427     0.02300
C3868       C  0.91334298  0.25895173  0.60918324     0.00000
C3869       C  0.91379154  0.24787212  0.60933144    -0.11700
C3870       C  0.90747678  0.24178994  0.60257444     0.02200
H3871       H  0.89516314  0.26178142  0.58943828     0.15200
H3872       H  0.91909811  0.24394273  0.61477729     0.15200
C3873       C  0.90836714  0.23043582  0.60305148     0.36800
C3874       C  0.90565962  0.27531870  0.60142547     0.36700
N3875       N  0.90909093  0.22133528  0.60345595    -0.43500
N3876       N  0.90502722  0.28442268  0.60093807    -0.43500
C3877       C  0.99521357  0.37781981  0.72548654     0.00100
C3878       C  0.00059448  0.37890441  0.71586091    -0.11800
C3879       C  0.01161626  0.37910856  0.71543274     0.02300
C3880       C  0.01758151  0.37808281  0.72479338     0.00000
C3881       C  0.01223436  0.37766357  0.73450912    -0.11700
C3882       C  0.00113427  0.37750526  0.73493054     0.02200
H3883       H  0.99614985  0.37946369  0.70857063     0.15200
H3884       H  0.01672444  0.37692851  0.74175196     0.15200
C3885       C  0.99609683  0.37627261  0.74506829     0.36800
C3886       C  0.01656069  0.38053417  0.70525594     0.36700
N3887       N  0.99208660  0.37527483  0.75321495    -0.43500
N3888       N  0.02049880  0.38168388  0.69709326    -0.43500
C3889       C  0.93272295  0.33884835  0.68321862     0.00100
C3890       C  0.93794627  0.34069301  0.67363719    -0.11800
C3891       C  0.93779614  0.33320728  0.66554436     0.02300
C3892       C  0.93241318  0.32355901  0.66696943     0.00000
C3893       C  0.92645266  0.32203692  0.67619940    -0.11700
C3894       C  0.92658072  0.32960482  0.68434156     0.02200
H3895       H  0.94250942  0.34786949  0.67261838     0.15200
H3896       H  0.92233358  0.31462445  0.67737173     0.15200
C3897       C  0.92117724  0.32725847  0.69408980     0.36800
C3898       C  0.94347525  0.33550264  0.65592594     0.36700
N3899       N  0.91686942  0.32535883  0.70191807    -0.43500
N3900       N  0.94800893  0.33735964  0.64821614    -0.43500
C3901       C  0.88171013  0.49121178  0.78452541     0.00100
C3902       C  0.88275273  0.49647996  0.77481463    -0.11800
C3903       C  0.88271696  0.50758876  0.77428283     0.02300
C3904       C  0.88162734  0.51362024  0.78362224     0.00000
C3905       C  0.88133607  0.50830192  0.79334047    -0.11700
C3906       C  0.88143626  0.49728061  0.79388310     0.02200
H3907       H  0.88307924  0.49192457  0.76757624     0.15200
H3908       H  0.88091308  0.51278966  0.80061797     0.15200
C3909       C  0.88141206  0.49245883  0.80421119     0.36800
C3910       C  0.88316357  0.51249677  0.76402397     0.36700
N3911       N  0.88139747  0.48864633  0.81250900    -0.43500
N3912       N  0.88355522  0.51637626  0.75576656    -0.43500
C3913       C  0.89777237  0.40880782  0.75863667     0.00100
C3914       C  0.90337960  0.40076695  0.76381650    -0.11800
C3915       C  0.91043204  0.39424976  0.75826437     0.02300
C3916       C  0.91181303  0.39559244  0.74730086     0.00000
C3917       C  0.90580003  0.40324227  0.74202156    -0.11700
C3918       C  0.89888501  0.40988479  0.74758827     0.02200
H3919       H  0.90250223  0.39978953  0.77227203     0.15200
H3920       H  0.90670515  0.40420165  0.73356513     0.15200
C3921       C  0.89285056  0.41759240  0.74175349     0.36800
C3922       C  0.91604787  0.38611161  0.76392613     0.36700
N3923       N  0.88798414  0.42375027  0.73708067    -0.43500
N3924       N  0.92053730  0.37954151  0.76841071    -0.43500
C3925       C  0.63293506  0.28084437  0.99367959     0.00100
C3926       C  0.63416125  0.29034992  0.99925970    -0.11800
C3927       C  0.63418026  0.29054637  0.01028267     0.02300
C3928       C  0.63297192  0.28107119  0.01601302     0.00000
C3929       C  0.63099020  0.27166226  0.01050050    -0.11700
C3930       C  0.63101330  0.27145394  0.99941088     0.02200
H3931       H  0.63533050  0.29767377  0.99498225     0.15200
H3932       H  0.63003212  0.26435213  0.01485259     0.15200
C3933       C  0.62986766  0.26138471  0.99421193     0.36800
C3934       C  0.63540932  0.30061008  0.01551068     0.36700
N3935       N  0.62896194  0.25328172  0.99008729    -0.43500
N3936       N  0.63637394  0.30868297  0.01968127    -0.43500
C3937       C  0.51865088  0.23663066  0.86734163     0.00100
C3938       C  0.51302037  0.23781086  0.87683553    -0.11800
C3939       C  0.50190470  0.23812971  0.87690834     0.02300
C3940       C  0.49625311  0.23732149  0.86731443     0.00000
C3941       C  0.50195690  0.23694443  0.85782207    -0.11700
C3942       C  0.51298459  0.23663424  0.85773820     0.02200
H3943       H  0.51727543  0.23790957  0.88425470     0.15200
H3944       H  0.49775403  0.23666507  0.85037421     0.15200
C3945       C  0.51824241  0.23636795  0.84762268     0.36800
C3946       C  0.49656896  0.23851995  0.88696186     0.36700
N3947       N  0.52241979  0.23613062  0.83950083    -0.43500
N3948       N  0.49233850  0.23883445  0.89505371    -0.43500
C3949       C  0.58090314  0.19263600  0.83059475     0.00100
C3950       C  0.58710628  0.18367146  0.83273014    -0.11800
C3951       C  0.58717198  0.17499337  0.82576309     0.02300
C3952       C  0.58090578  0.17522712  0.81656140     0.00000
C3953       C  0.57545037  0.18451252  0.81403396    -0.11700
C3954       C  0.57553892  0.19321597  0.82082728     0.02200
H3955       H  0.59135372  0.18315921  0.84013502     0.15200
H3956       H  0.57081765  0.18484393  0.80684498     0.15200
C3957       C  0.56998328  0.20263714  0.81758787     0.36800
C3958       C  0.59306615  0.16566622  0.82859208     0.36700
N3959       N  0.56556381  0.21019306  0.81496530    -0.43500
N3960       N  0.59780400  0.15818385  0.83084053    -0.43500
C3961       C  0.61467921  0.25888687  0.91079546     0.00100
C3962       C  0.60852365  0.26488371  0.90381911    -0.11800
C3963       C  0.60144329  0.26000404  0.89684841     0.02300
C3964       C  0.60070749  0.24887478  0.89650023     0.00000
C3965       C  0.60708564  0.24286165  0.90327658    -0.11700
C3966       C  0.61388478  0.24776353  0.91052559     0.02200
H3967       H  0.60905078  0.27343068  0.90400875     0.15200
H3968       H  0.60655189  0.23431591  0.90309253     0.15200
C3969       C  0.62006831  0.24120886  0.91749622     0.36800
C3970       C  0.59514048  0.26660206  0.89002946     0.36700
N3971       N  0.62499945  0.23594511  0.92309818    -0.43500
N3972       N  0.59006947  0.27191137  0.88459854    -0.43500
C3973       C  0.74550545  0.35945301  0.99433926     0.00100
C3974       C  0.74584007  0.36921630  0.99962893    -0.11800
C3975       C  0.74535146  0.36976525  0.01069826     0.02300
C3976       C  0.74455647  0.36039604  0.01669890     0.00000
C3977       C  0.74486232  0.35064967  0.01143330    -0.11700
C3978       C  0.74540919  0.35008442  0.00042056     0.02200
H3979       H  0.74592856  0.37648046  0.99510727     0.15200
H3980       H  0.74451268  0.34338952  0.01596159     0.15200
C3981       C  0.74595707  0.33974107  0.99564703     0.36800
C3982       C  0.74487421  0.38004687  0.01558397     0.36700
N3983       N  0.74638087  0.33142050  0.99188875    -0.43500
N3984       N  0.74447483  0.38831372  0.01945867    -0.43500
C3985       C  0.69761170  0.32861550  0.93210209     0.00100
C3986       C  0.69851168  0.31856299  0.93671644    -0.11800
C3987       C  0.69007257  0.31146999  0.93673671     0.02300
C3988       C  0.68043481  0.31425648  0.93193203     0.00000
C3989       C  0.67973126  0.32390952  0.92652584    -0.11700
C3990       C  0.68820605  0.33112237  0.92659825     0.02200
H3991       H  0.70576100  0.31633166  0.94067821     0.15200
H3992       H  0.67232960  0.32610855  0.92283398     0.15200
C3993       C  0.68667759  0.34127058  0.92166628     0.36800
C3994       C  0.69142901  0.30144415  0.94200346     0.36700
N3995       N  0.68537409  0.34938714  0.91767841    -0.43500
N3996       N  0.69251909  0.29342580  0.94624270    -0.43500
C3997       C  0.77702108  0.49158315  0.87224363     0.00100
C3998       C  0.77620112  0.49664469  0.88209308    -0.11800
C3999       C  0.77644284  0.50771315  0.88285381     0.02300
C4000       C  0.77757854  0.51385410  0.87363365     0.00000
C4001       C  0.77761083  0.50881574  0.86378986    -0.11700
C4002       C  0.77721267  0.49783127  0.86299961     0.02200
H4003       H  0.77592522  0.49196125  0.88924688     0.15200
H4004       H  0.77814185  0.51350595  0.85664552     0.15200
C4005       C  0.77690393  0.49326098  0.85256253     0.36800
C4006       C  0.77626035  0.51249716  0.89318747     0.36700
N4007       N  0.77664897  0.48967480  0.84416651    -0.43500
N4008       N  0.77609757  0.51630602  0.90148722    -0.43500
C4009       C  0.81845242  0.42883586  0.83309767     0.00100
C4010       C  0.81728398  0.43490874  0.82389852    -0.11800
C4011       C  0.82508321  0.43505845  0.81609910     0.02300
C4012       C  0.83437636  0.42904530  0.81736843     0.00000
C4013       C  0.83516358  0.42219456  0.82605419    -0.11700
C4014       C  0.82728201  0.42203620  0.83391801     0.02200
H4015       H  0.81038646  0.43990051  0.82296155     0.15200
H4016       H  0.84224656  0.41748813  0.82705455     0.15200
C4017       C  0.82887442  0.41545497  0.84306358     0.36800
C4018       C  0.82342884  0.44162971  0.80692942     0.36700
N4019       N  0.83017549  0.41013710  0.85037195    -0.43500
N4020       N  0.82208782  0.44688599  0.79958362    -0.43500
C4021       C  0.76325748  0.40965053  0.90031210     0.00100
C4022       C  0.76106420  0.41284291  0.91071413    -0.11800
C4023       C  0.75593228  0.40609825  0.91784966     0.02300
C4024       C  0.75285854  0.39585128  0.91465123     0.00000
C4025       C  0.75471698  0.39279230  0.90415566    -0.11700
C4026       C  0.75984310  0.39954111  0.89701460     0.02200
H4027       H  0.76345913  0.42062899  0.91334390     0.15200
H4028       H  0.75227506  0.38501868  0.90152985     0.15200
C4029       C  0.76108240  0.39600100  0.88626092     0.36800
C4030       C  0.75356014  0.41009330  0.92825765     0.36700
N4031       N  0.76203143  0.39313497  0.87764057    -0.43500
N4032       N  0.75164204  0.41334111  0.93657881    -0.43500
loop_ 
_geom_bond_atom_site_label_1 
_geom_bond_atom_site_label_2 
_geom_bond_distance 
_geom_bond_site_symmetry_2 
_ccdc_geom_bond_type 
N1            N2   1.320       .  A
N1            C5   1.354       .  A
N1           Cu9   2.102       .  S
N2            C3   1.339       .  A
N2           Cu8   2.056       .  S
C3            C4   1.381       .  A
C3            H6   1.082       .  S
C4            C5   1.395       .  A
C4         C4009   1.491       .  S
C5            H7   1.081       .  S
Cu8          N11   2.056       .  S
Cu9          N19   2.104       .  S
Cu10         N12   2.080       .  S
Cu10         N18   2.083       .  S
N11          N12   1.319       .  A
N11          C15   1.339       .  A
N12          C13   1.349       .  A
C13          C14   1.390       .  A
C13          H16   1.082       .  S
C14          C15   1.384       .  A
C14        C3997   1.486       .  S
C15          H17   1.081       .  S
N18          N19   1.326       .  A
N18          C22   1.346       .  A
N19          C20   1.348       .  A
C20          C21   1.390       .  A
C20          H23   1.081       .  S
C21          C22   1.385       .  A
C21        C4021   1.493       .  S
C22          H24   1.082       .  S
N25          N26   1.320       .  A
N25          C29   1.353       .  A
N25         Cu33   2.096       .  S
N26          C27   1.339       .  A
N26         Cu32   2.062       .  S
C27          C28   1.384       .  A
C27          H30   1.082       .  S
C28          C29   1.394       .  A
C28        C3985   1.493       .  S
C29          H31   1.081       .  S
Cu32         N35   2.061       .  S
Cu33         N43   2.098       .  S
Cu34         N36   2.087       .  S
Cu34         N42   2.089       .  S
N35          N36   1.319       .  A
N35          C39   1.341       .  A
N36          C37   1.350       .  A
C37          C38   1.392       .  A
C37          H40   1.082       .  S
C38          C39   1.385       .  A
C38        C3973   1.491       .  S
C39          H41   1.081       .  S
N42          N43   1.326       .  A
N42          C46   1.346       .  A
N43          C44   1.348       .  A
C44          C45   1.388       .  A
C44          H47   1.082       .  S
C45          C46   1.386       .  A
C45        C4024   1.491       .  S
C46          H48   1.081       .  S
N49          N50   1.321       .  A
N49          C53   1.355       .  A
N49         Cu57   2.102       .  S
N50          C51   1.339       .  A
N50         Cu56   2.058       .  S
C51          C52   1.381       .  A
C51          H54   1.082       .  S
C52          C53   1.394       .  A
C52        C3949   1.489       .  S
C53          H55   1.082       .  S
Cu56         N59   2.058       .  S
Cu57         N67   2.105       .  S
Cu58         N60   2.088       .  S
Cu58         N66   2.091       .  S
N59          N60   1.319       .  A
N59          C63   1.340       .  A
N60          C61   1.352       .  A
C61          C62   1.392       .  A
C61          H64   1.082       .  S
C62          C63   1.384       .  A
C62        C3937   1.489       .  S
C63          H65   1.082       .  S
N66          N67   1.328       .  A
N66          C70   1.346       .  A
N67          C68   1.350       .  A
C68          C69   1.386       .  A
C68          H71   1.082       .  S
C69          C70   1.382       .  A
C69        C3964   1.485       .  S
C70          H72   1.082       .  S
N73          N74   1.322       .  A
N73          C77   1.354       .  A
N73         Cu81   2.100       .  S
N74          C75   1.339       .  A
N74         Cu80   2.058       .  S
C75          C76   1.379       .  A
C75          H78   1.082       .  S
C76          C77   1.391       .  A
C76        C3988   1.483       .  S
C77          H79   1.082       .  S
Cu80         N83   2.057       .  S
Cu81         N91   2.102       .  S
Cu82         N84   2.083       .  S
Cu82         N90   2.085       .  S
N83          N84   1.319       .  A
N83          C87   1.340       .  A
N84          C85   1.350       .  A
C85          C86   1.391       .  A
C85          H88   1.081       .  S
C86          C87   1.383       .  A
C86        C3925   1.487       .  S
C87          H89   1.082       .  S
N90          N91   1.327       .  A
N90          C94   1.346       .  A
N91          C92   1.349       .  A
C92          C93   1.386       .  A
C92          H95   1.082       .  S
C93          C94   1.382       .  A
C93        C3961   1.484       .  S
C94          H96   1.082       .  S
N97          N98   1.321       .  A
N97         C101   1.354       .  A
N97        Cu105   2.099       .  S
N98          C99   1.340       .  A
N98        Cu104   2.060       .  S
C99         C100   1.380       .  A
C99         H102   1.082       .  S
C100        C101   1.391       .  A
C100       C4012   1.485       .  S
C101        H103   1.082       .  S
Cu104       N107   2.060       .  S
Cu105       N115   2.102       .  S
Cu106       N108   2.089       .  S
Cu106       N114   2.091       .  S
N107        N108   1.319       .  A
N107        C111   1.340       .  A
N108        C109   1.352       .  A
C109        C110   1.392       .  A
C109        H112   1.082       .  S
C110        C111   1.384       .  A
C110       C3901   1.489       .  S
C111        H113   1.082       .  S
N114        N115   1.327       .  A
N114        C118   1.345       .  A
N115        C116   1.350       .  A
C116        C117   1.386       .  A
C116        H119   1.082       .  S
C117        C118   1.383       .  A
C117       C3913   1.486       .  S
C118        H120   1.082       .  S
N121        N122   1.321       .  A
N121        C125   1.351       .  A
N121       Cu129   2.088       .  S
N122        C123   1.340       .  A
N122       Cu128   2.060       .  S
C123        C124   1.381       .  A
C123        H126   1.082       .  S
C124        C125   1.389       .  A
C124       C3889   1.483       .  S
C125        H127   1.082       .  S
Cu128       N131   2.060       .  S
Cu129       N139   2.090       .  S
Cu130       N132   2.092       .  S
Cu130       N138   2.094       .  S
N131        N132   1.321       .  A
N131        C135   1.340       .  A
N132        C133   1.351       .  A
C133        C134   1.392       .  A
C133        H136   1.082       .  S
C134        C135   1.382       .  A
C134       C3877   1.487       .  S
C135        H137   1.082       .  S
N138        N139   1.326       .  A
N138        C142   1.347       .  A
N139        C140   1.348       .  A
C140        C141   1.382       .  A
C140        H143   1.082       .  S
C141        C142   1.384       .  A
C141       C3916   1.482       .  S
C142        H144   1.082       .  S
N145        N146   1.321       .  A
N145        C149   1.353       .  A
N145       Cu153   2.092       .  S
N146        C147   1.341       .  A
N146       Cu152   2.067       .  S
C147        C148   1.382       .  A
C147        H150   1.082       .  S
C148        C149   1.390       .  A
C148       C3853   1.485       .  S
C149        H151   1.082       .  S
Cu152       N155   2.067       .  S
Cu153       N163   2.094       .  S
Cu154       N156   2.095       .  S
Cu154       N162   2.097       .  S
N155        N156   1.321       .  A
N155        C159   1.342       .  A
N156        C157   1.352       .  A
C157        C158   1.392       .  A
C157        H160   1.082       .  S
C158        C159   1.383       .  A
C158       C3844   1.489       .  S
C159        H161   1.082       .  S
N162        N163   1.326       .  A
N162        C166   1.349       .  A
N163        C164   1.347       .  A
C164        C165   1.384       .  A
C164        H167   1.082       .  S
C165        C166   1.385       .  A
C165       C3865   1.486       .  S
C166        H168   1.082       .  S
N169        N170   1.321       .  A
N169        C173   1.353       .  A
N169       Cu177   2.096       .  S
N170        C171   1.339       .  A
N170       Cu176   2.058       .  S
C171        C172   1.379       .  A
C171        H174   1.082       .  S
C172        C173   1.390       .  A
C172       C3892   1.482       .  S
C173        H175   1.082       .  S
Cu176       N179   2.058       .  S
Cu177       N187   2.099       .  S
Cu178       N180   2.092       .  S
Cu178       N186   2.094       .  S
N179        N180   1.319       .  A
N179        C183   1.340       .  A
N180        C181   1.352       .  A
C181        C182   1.393       .  A
C181        H184   1.081       .  S
C182        C183   1.384       .  A
C182       C3829   1.491       .  S
C183        H185   1.082       .  S
N186        N187   1.327       .  A
N186        C190   1.346       .  A
N187        C188   1.350       .  A
C188        C189   1.387       .  A
C188        H191   1.082       .  S
C189        C190   1.383       .  A
C189       C3868   1.487       .  S
C190        H192   1.082       .  S
N193        N194   1.323       .  A
N193        C197   1.353       .  A
N193       Cu201   2.101       .  S
N194        C195   1.341       .  A
N194       Cu200   2.070       .  S
C195        C196   1.380       .  A
C195        H198   1.082       .  S
C196        C197   1.390       .  A
C196       C3952   1.483       .  S
C197        H199   1.082       .  S
Cu200       N203   2.069       .  S
Cu201       N211   2.102       .  S
Cu202       N204   2.072       .  S
Cu202       N210   2.073       .  S
N203        N204   1.319       .  A
N203        C207   1.342       .  A
N204        C205   1.348       .  A
C205        C206   1.388       .  A
C205        H208   1.081       .  S
C206        C207   1.386       .  A
C206       C3805   1.486       .  S
C207        H209   1.082       .  S
N210        N211   1.325       .  A
N210        C214   1.343       .  A
N211        C212   1.350       .  A
C212        C213   1.389       .  A
C212        H215   1.082       .  S
C213        C214   1.382       .  A
C213       C3820   1.488       .  S
C214        H216   1.082       .  S
N217        N218   1.322       .  A
N217        C221   1.353       .  A
N217       Cu225   2.096       .  S
N218        C219   1.340       .  A
N218       Cu224   2.065       .  S
C219        C220   1.381       .  A
C219        H222   1.082       .  S
C220        C221   1.391       .  A
C220       C3793   1.487       .  S
C221        H223   1.082       .  S
Cu224       N227   2.065       .  S
Cu225       N235   2.098       .  S
Cu226       N228   2.079       .  S
Cu226       N234   2.081       .  S
N227        N228   1.320       .  A
N227        C231   1.342       .  A
N228        C229   1.349       .  A
C229        C230   1.388       .  A
C229        H232   1.082       .  S
C230        C231   1.383       .  A
C230       C3781   1.483       .  S
C231        H233   1.082       .  S
N234        N235   1.325       .  A
N234        C238   1.344       .  A
N235        C236   1.348       .  A
C236        C237   1.390       .  A
C236        H239   1.081       .  S
C237        C238   1.385       .  A
C237       C3817   1.493       .  S
C238        H240   1.082       .  S
N241        N242   1.321       .  A
N241        C245   1.355       .  A
N241       Cu249   2.102       .  S
N242        C243   1.339       .  A
N242       Cu248   2.059       .  S
C243        C244   1.380       .  A
C243        H246   1.082       .  S
C244        C245   1.392       .  A
C244       C3856   1.487       .  S
C245        H247   1.082       .  S
Cu248       N251   2.059       .  S
Cu249       N259   2.104       .  S
Cu250       N252   2.081       .  S
Cu250       N258   2.084       .  S
N251        N252   1.319       .  A
N251        C255   1.341       .  A
N252        C253   1.350       .  A
C253        C254   1.389       .  A
C253        H256   1.082       .  S
C254        C255   1.383       .  A
C254       C3757   1.484       .  S
C255        H257   1.082       .  S
N258        N259   1.326       .  A
N258        C262   1.346       .  A
N259        C260   1.349       .  A
C260        C261   1.387       .  A
C260        H263   1.082       .  S
C261        C262   1.383       .  A
C261       C3772   1.487       .  S
C262        H264   1.082       .  S
N265        N266   1.321       .  A
N265        C269   1.355       .  A
N265       Cu273   2.105       .  S
N266        C267   1.338       .  A
N266       Cu272   2.049       .  S
C267        C268   1.378       .  A
C267        H270   1.082       .  S
C268        C269   1.393       .  A
C268       C3796   1.485       .  S
C269        H271   1.082       .  S
Cu272       N275   2.048       .  S
Cu273       N283   2.108       .  S
Cu274       N276   2.087       .  S
Cu274       N282   2.090       .  S
N275        N276   1.319       .  A
N275        C279   1.338       .  A
N276        C277   1.352       .  A
C277        C278   1.391       .  A
C277        H280   1.082       .  S
C278        C279   1.379       .  A
C278       C3748   1.481       .  S
C279        H281   1.082       .  S
N282        N283   1.328       .  A
N282        C286   1.346       .  A
N283        C284   1.350       .  A
C284        C285   1.386       .  A
C284        H287   1.082       .  S
C285        C286   1.381       .  A
C285       C3769   1.485       .  S
C286        H288   1.082       .  S
N289        N290   1.321       .  A
N289        C293   1.351       .  A
N289       Cu297   2.088       .  S
N290        C291   1.341       .  A
N290       Cu296   2.068       .  S
C291        C292   1.382       .  A
C291        H294   1.082       .  S
C292        C293   1.389       .  A
C292       C3724   1.483       .  S
C293        H295   1.082       .  S
Cu296       N299   2.068       .  S
Cu297       N307   2.090       .  S
Cu298       N300   2.082       .  S
Cu298       N306   2.084       .  S
N299        N300   1.320       .  A
N299        C303   1.341       .  A
N300        C301   1.351       .  A
C301        C302   1.389       .  A
C301        H304   1.082       .  S
C302        C303   1.383       .  A
C302       C3709   1.485       .  S
C303        H305   1.082       .  S
N306        N307   1.326       .  A
N306        C310   1.345       .  A
N307        C308   1.348       .  A
C308        C309   1.382       .  A
C308        H311   1.082       .  S
C309        C310   1.380       .  A
C309       C3733   1.475       .  S
C310        H312   1.082       .  S
N313        N314   1.321       .  A
N313        C317   1.351       .  A
N313       Cu321   2.089       .  S
N314        C315   1.340       .  A
N314       Cu320   2.063       .  S
C315        C316   1.381       .  A
C315        H318   1.082       .  S
C316        C317   1.390       .  A
C316       C3697   1.484       .  S
C317        H319   1.082       .  S
Cu320       N323   2.063       .  S
Cu321       N331   2.091       .  S
Cu322       N324   2.077       .  S
Cu322       N330   2.079       .  S
N323        N324   1.320       .  A
N323        C327   1.341       .  A
N324        C325   1.349       .  A
C325        C326   1.388       .  A
C325        H328   1.082       .  S
C326        C327   1.384       .  A
C326       C3685   1.484       .  S
C327        H329   1.082       .  S
N330        N331   1.325       .  A
N330        C334   1.344       .  A
N331        C332   1.347       .  A
C332        C333   1.388       .  A
C332        H335   1.081       .  S
C333        C334   1.383       .  A
C333       C3736   1.487       .  S
C334        H336   1.082       .  S
N337        N338   1.321       .  A
N337        C341   1.351       .  A
N337       Cu345   2.082       .  S
N338        C339   1.341       .  A
N338       Cu344   2.070       .  S
C339        C340   1.384       .  A
C339        H342   1.082       .  S
C340        C341   1.388       .  A
C340       C3661   1.486       .  S
C341        H343   1.082       .  S
Cu344       N347   2.069       .  S
Cu345       N355   2.084       .  S
Cu346       N348   2.088       .  S
Cu346       N354   2.089       .  S
N347        N348   1.321       .  A
N347        C351   1.341       .  A
N348        C349   1.351       .  A
C349        C350   1.392       .  A
C349        H352   1.081       .  S
C350        C351   1.384       .  A
C350       C3940   1.490       .  S
C351        H353   1.082       .  S
N354        N355   1.326       .  A
N354        C358   1.346       .  A
N355        C356   1.346       .  A
C356        C357   1.383       .  A
C356        H359   1.082       .  S
C357        C358   1.383       .  A
C357       C3673   1.481       .  S
C358        H360   1.082       .  S
N361        N362   1.321       .  A
N361        C365   1.350       .  A
N361       Cu369   2.084       .  S
N362        C363   1.341       .  A
N362       Cu368   2.065       .  S
C363        C364   1.380       .  A
C363        H366   1.082       .  S
C364        C365   1.387       .  A
C364       C3700   1.479       .  S
C365        H367   1.082       .  S
Cu368       N371   2.064       .  S
Cu369       N379   2.086       .  S
Cu370       N372   2.080       .  S
Cu370       N378   2.082       .  S
N371        N372   1.321       .  A
N371        C375   1.341       .  A
N372        C373   1.349       .  A
C373        C374   1.387       .  A
C373        H376   1.082       .  S
C374        C375   1.382       .  A
C374       C3649   1.482       .  S
C375        H377   1.082       .  S
N378        N379   1.325       .  A
N378        C382   1.345       .  A
N379        C380   1.346       .  A
C380        C381   1.384       .  A
C380        H383   1.082       .  S
C381        C382   1.382       .  A
C381       C3676   1.481       .  S
C382        H384   1.082       .  S
N385        N386   1.322       .  A
N385        C389   1.353       .  A
N385       Cu393   2.095       .  S
N386        C387   1.340       .  A
N386       Cu392   2.063       .  S
C387        C388   1.379       .  A
C387        H390   1.082       .  S
C388        C389   1.389       .  A
C388       C3721   1.481       .  S
C389        H391   1.082       .  S
Cu392       N395   2.063       .  S
Cu393       N403   2.097       .  S
Cu394       N396   2.087       .  S
Cu394       N402   2.089       .  S
N395        N396   1.320       .  A
N395        C399   1.341       .  A
N396        C397   1.350       .  A
C397        C398   1.391       .  A
C397        H400   1.082       .  S
C398        C399   1.385       .  A
C398       C3625   1.489       .  S
C399        H401   1.081       .  S
N402        N403   1.326       .  A
N402        C406   1.346       .  A
N403        C404   1.349       .  A
C404        C405   1.386       .  A
C404        H407   1.082       .  S
C405        C406   1.383       .  A
C405       C3637   1.486       .  S
C406        H408   1.082       .  S
N409        N410   1.321       .  A
N409        C413   1.353       .  A
N409       Cu417   2.097       .  S
N410        C411   1.340       .  A
N410       Cu416   2.059       .  S
C411        C412   1.379       .  A
C411        H414   1.082       .  S
C412        C413   1.390       .  A
C412       C3613   1.481       .  S
C413        H415   1.082       .  S
Cu416       N419   2.059       .  S
Cu417       N427   2.100       .  S
Cu418       N420   2.086       .  S
Cu418       N426   2.088       .  S
N419        N420   1.320       .  A
N419        C423   1.340       .  A
N420        C421   1.351       .  A
C421        C422   1.390       .  A
C421        H424   1.082       .  S
C422        C423   1.383       .  A
C422       C3880   1.487       .  S
C423        H425   1.082       .  S
N426        N427   1.327       .  A
N426        C430   1.346       .  A
N427        C428   1.349       .  A
C428        C429   1.385       .  A
C428        H431   1.082       .  S
C429        C430   1.382       .  A
C429       C3640   1.483       .  S
C430        H432   1.082       .  S
N433        N434   1.322       .  A
N433        C437   1.353       .  A
N433       Cu441   2.096       .  S
N434        C435   1.340       .  A
N434       Cu440   2.058       .  S
C435        C436   1.379       .  A
C435        H438   1.082       .  S
C436        C437   1.390       .  A
C436       C3589   1.482       .  S
C437        H439   1.082       .  S
Cu440       N443   2.058       .  S
Cu441       N451   2.098       .  S
Cu442       N444   2.080       .  S
Cu442       N450   2.083       .  S
N443        N444   1.320       .  A
N443        C447   1.341       .  A
N444        C445   1.349       .  A
C445        C446   1.388       .  A
C445        H448   1.082       .  S
C446        C447   1.382       .  A
C446       C3580   1.482       .  S
C447        H449   1.082       .  S
N450        N451   1.325       .  A
N450        C454   1.345       .  A
N451        C452   1.349       .  A
C452        C453   1.390       .  A
C452        H455   1.081       .  S
C453        C454   1.386       .  A
C453       C3601   1.493       .  S
C454        H456   1.082       .  S
N457        N458   1.321       .  A
N457        C461   1.353       .  A
N457       Cu465   2.094       .  S
N458        C459   1.340       .  A
N458       Cu464   2.061       .  S
C459        C460   1.380       .  A
C459        H462   1.082       .  S
C460        C461   1.391       .  A
C460       C3616   1.484       .  S
C461        H463   1.082       .  S
Cu464       N467   2.062       .  S
Cu465       N475   2.096       .  S
Cu466       N468   2.092       .  S
Cu466       N474   2.094       .  S
N467        N468   1.320       .  A
N467        C471   1.341       .  A
N468        C469   1.352       .  A
C469        C470   1.391       .  A
C469        H472   1.082       .  S
C470        C471   1.383       .  A
C470       C3832   1.487       .  S
C471        H473   1.082       .  S
N474        N475   1.326       .  A
N474        C478   1.346       .  A
N475        C476   1.348       .  A
C476        C477   1.387       .  A
C476        H479   1.082       .  S
C477        C478   1.387       .  A
C477       C3604   1.492       .  S
C478        H480   1.081       .  S
N481        N482   1.322       .  A
N481        C485   1.354       .  A
N481       Cu489   2.106       .  S
N482        C483   1.341       .  A
N482       Cu488   2.062       .  S
C483        C484   1.381       .  A
C483        H486   1.082       .  S
C484        C485   1.394       .  A
C484       C3553   1.490       .  S
C485        H487   1.082       .  S
Cu488       N491   2.061       .  S
Cu489       N499   2.108       .  S
Cu490       N492   2.070       .  S
Cu490       N498   2.073       .  S
N491        N492   1.319       .  A
N491        C495   1.340       .  A
N492        C493   1.349       .  A
C493        C494   1.387       .  A
C493        H496   1.082       .  S
C494        C495   1.383       .  A
C494       C3541   1.480       .  S
C495        H497   1.082       .  S
N498        N499   1.325       .  A
N498        C502   1.343       .  A
N499        C500   1.349       .  A
C500        C501   1.392       .  A
C500        H503   1.082       .  S
C501        C502   1.384       .  A
C501       C3565   1.493       .  S
C502        H504   1.081       .  S
N505        N506   1.323       .  A
N505        C509   1.353       .  A
N505       Cu513   2.095       .  S
N506        C507   1.339       .  A
N506       Cu512   2.063       .  S
C507        C508   1.378       .  A
C507        H510   1.082       .  S
C508        C509   1.389       .  A
C508       C3592   1.480       .  S
C509        H511   1.082       .  S
Cu512       N515   2.063       .  S
Cu513       N523   2.097       .  S
Cu514       N516   2.079       .  S
Cu514       N522   2.080       .  S
N515        N516   1.320       .  A
N515        C519   1.343       .  A
N516        C517   1.348       .  A
C517        C518   1.388       .  A
C517        H520   1.082       .  S
C518        C519   1.383       .  A
C518       C3529   1.484       .  S
C519        H521   1.082       .  S
N522        N523   1.325       .  A
N522        C526   1.344       .  A
N523        C524   1.349       .  A
C524        C525   1.389       .  A
C524        H527   1.081       .  S
C525        C526   1.384       .  A
C525       C3568   1.490       .  S
C526        H528   1.082       .  S
N529        N530   1.321       .  A
N529        C533   1.354       .  A
N529       Cu537   2.100       .  S
N530        C531   1.338       .  A
N530       Cu536   2.053       .  S
C531        C532   1.378       .  A
C531        H534   1.082       .  S
C532        C533   1.393       .  A
C532       C3664   1.484       .  S
C533        H535   1.082       .  S
Cu536       N539   2.054       .  S
Cu537       N547   2.103       .  S
Cu538       N540   2.091       .  S
Cu538       N546   2.095       .  S
N539        N540   1.320       .  A
N539        C543   1.340       .  A
N540        C541   1.351       .  A
C541        C542   1.389       .  A
C541        H544   1.082       .  S
C542        C543   1.380       .  A
C542       C3808   1.481       .  S
C543        H545   1.082       .  S
N546        N547   1.327       .  A
N546        C550   1.348       .  A
N547        C548   1.349       .  A
C548        C549   1.385       .  A
C548        H551   1.082       .  S
C549        C550   1.384       .  A
C549       C3517   1.486       .  S
C550        H552   1.082       .  S
N553        N554   1.322       .  A
N553        C557   1.356       .  A
N553       Cu561   2.113       .  S
N554        C555   1.340       .  A
N554       Cu560   2.059       .  S
C555        C556   1.378       .  A
C555        H558   1.082       .  S
C556        C557   1.394       .  A
C556       C3556   1.487       .  S
C557        H559   1.082       .  S
Cu560       N563   2.059       .  S
Cu561       N571   2.116       .  S
Cu562       N564   2.084       .  S
Cu562       N570   2.086       .  S
N563        N564   1.319       .  A
N563        C567   1.340       .  A
N564        C565   1.351       .  A
C565        C566   1.391       .  A
C565        H568   1.082       .  S
C566        C567   1.384       .  A
C566       C3505   1.487       .  S
C567        H569   1.082       .  S
N570        N571   1.327       .  A
N570        C574   1.345       .  A
N571        C572   1.352       .  A
C572        C573   1.390       .  A
C572        H575   1.082       .  S
C573        C574   1.382       .  A
C573       C3520   1.490       .  S
C574        H576   1.082       .  S
N577        N578   1.320       .  A
N577        C581   1.354       .  A
N577       Cu585   2.095       .  S
N578        C579   1.338       .  A
N578       Cu584   2.050       .  S
C579        C580   1.379       .  A
C579        H582   1.082       .  S
C580        C581   1.393       .  A
C580       C3481   1.484       .  S
C581        H583   1.082       .  S
Cu584       N587   2.050       .  S
Cu585       N595   2.099       .  S
Cu586       N588   2.094       .  S
Cu586       N594   2.097       .  S
N587        N588   1.319       .  A
N587        C591   1.339       .  A
N588        C589   1.353       .  A
C589        C590   1.392       .  A
C589        H592   1.082       .  S
C590        C591   1.379       .  A
C590       C3469   1.483       .  S
C591        H593   1.082       .  S
N594        N595   1.327       .  A
N594        C598   1.346       .  A
N595        C596   1.349       .  A
C596        C597   1.387       .  A
C596        H599   1.082       .  S
C597        C598   1.387       .  A
C597       C3493   1.494       .  S
C598        H600   1.081       .  S
N601        N602   1.323       .  A
N601        C605   1.354       .  A
N601       Cu609   2.105       .  S
N602        C603   1.340       .  A
N602       Cu608   2.067       .  S
C603        C604   1.380       .  A
C603        H606   1.082       .  S
C604        C605   1.392       .  A
C604       C3457   1.486       .  S
C605        H607   1.082       .  S
Cu608       N611   2.067       .  S
Cu609       N619   2.106       .  S
Cu610       N612   2.072       .  S
Cu610       N618   2.074       .  S
N611        N612   1.320       .  A
N611        C615   1.343       .  A
N612        C613   1.347       .  A
C613        C614   1.385       .  A
C613        H616   1.082       .  S
C614        C615   1.384       .  A
C614       C3745   1.480       .  S
C615        H617   1.082       .  S
N618        N619   1.324       .  A
N618        C622   1.343       .  A
N619        C620   1.351       .  A
C620        C621   1.394       .  A
C620        H623   1.081       .  S
C621        C622   1.385       .  A
C621       C3496   1.498       .  S
C622        H624   1.082       .  S
N625        N626   1.322       .  A
N625        C629   1.353       .  A
N625       Cu633   2.097       .  S
N626        C627   1.340       .  A
N626       Cu632   2.061       .  S
C627        C628   1.381       .  A
C627        H630   1.082       .  S
C628        C629   1.391       .  A
C628       C3433   1.487       .  S
C629        H631   1.082       .  S
Cu632       N635   2.061       .  S
Cu633       N643   2.100       .  S
Cu634       N636   2.080       .  S
Cu634       N642   2.082       .  S
N635        N636   1.320       .  A
N635        C639   1.341       .  A
N636        C637   1.350       .  A
C637        C638   1.388       .  A
C637        H640   1.082       .  S
C638        C639   1.381       .  A
C638       C3421   1.480       .  S
C639        H641   1.082       .  S
N642        N643   1.326       .  A
N642        C646   1.344       .  A
N643        C644   1.350       .  A
C644        C645   1.387       .  A
C644        H647   1.082       .  S
C645        C646   1.381       .  A
C645       C3445   1.485       .  S
C646        H648   1.082       .  S
N649        N650   1.320       .  A
N649        C653   1.354       .  A
N649       Cu657   2.099       .  S
N650        C651   1.339       .  A
N650       Cu656   2.053       .  S
C651        C652   1.381       .  A
C651        H654   1.082       .  S
C652        C653   1.394       .  A
C652       C3460   1.489       .  S
C653        H655   1.082       .  S
Cu656       N659   2.053       .  S
Cu657       N667   2.101       .  S
Cu658       N660   2.089       .  S
Cu658       N666   2.093       .  S
N659        N660   1.319       .  A
N659        C663   1.338       .  A
N660        C661   1.352       .  A
C661        C662   1.393       .  A
C661        H664   1.082       .  S
C662        C663   1.383       .  A
C662       C3784   1.489       .  S
C663        H665   1.081       .  S
N666        N667   1.328       .  A
N666        C670   1.346       .  A
N667        C668   1.349       .  A
C668        C669   1.385       .  A
C668        H671   1.082       .  S
C669        C670   1.382       .  A
C669       C3448   1.483       .  S
C670        H672   1.082       .  S
N673        N674   1.321       .  A
N673        C677   1.353       .  A
N673       Cu681   2.097       .  S
N674        C675   1.339       .  A
N674       Cu680   2.055       .  S
C675        C676   1.379       .  A
C675        H678   1.082       .  S
C676        C677   1.391       .  A
C676       C3436   1.483       .  S
C677        H679   1.082       .  S
Cu680       N683   2.055       .  S
Cu681       N691   2.099       .  S
Cu682       N684   2.084       .  S
Cu682       N690   2.087       .  S
N683        N684   1.319       .  A
N683        C687   1.339       .  A
N684        C685   1.351       .  A
C685        C686   1.391       .  A
C685        H688   1.082       .  S
C686        C687   1.382       .  A
C686       C3397   1.485       .  S
C687        H689   1.082       .  S
N690        N691   1.325       .  A
N690        C694   1.344       .  A
N691        C692   1.349       .  A
C692        C693   1.391       .  A
C692        H695   1.081       .  S
C693        C694   1.387       .  A
C693       C3409   1.496       .  S
C694        H696   1.082       .  S
N697        N698   1.321       .  A
N697        C701   1.354       .  A
N697       Cu705   2.102       .  S
N698        C699   1.339       .  A
N698       Cu704   2.059       .  S
C699        C700   1.380       .  A
C699        H702   1.082       .  S
C700        C701   1.392       .  A
C700       C3385   1.488       .  S
C701        H703   1.082       .  S
Cu704       N707   2.059       .  S
Cu705       N715   2.105       .  S
Cu706       N708   2.085       .  S
Cu706       N714   2.088       .  S
N707        N708   1.318       .  A
N707        C711   1.339       .  A
N708        C709   1.351       .  A
C709        C710   1.394       .  A
C709        H712   1.081       .  S
C710        C711   1.385       .  A
C710       C3373   1.493       .  S
C711        H713   1.082       .  S
N714        N715   1.326       .  A
N714        C718   1.344       .  A
N715        C716   1.351       .  A
C716        C717   1.390       .  A
C716        H719   1.082       .  S
C717        C718   1.385       .  A
C717       C3412   1.494       .  S
C718        H720   1.081       .  S
N721        N722   1.321       .  A
N721        C725   1.353       .  A
N721       Cu729   2.099       .  S
N722        C723   1.339       .  A
N722       Cu728   2.057       .  S
C723        C724   1.381       .  A
C723        H726   1.082       .  S
C724        C725   1.392       .  A
C724       C3349   1.487       .  S
C725        H727   1.082       .  S
Cu728       N731   2.056       .  S
Cu729       N739   2.101       .  S
Cu730       N732   2.073       .  S
Cu730       N738   2.075       .  S
N731        N732   1.319       .  A
N731        C735   1.339       .  A
N732        C733   1.349       .  A
C733        C734   1.388       .  A
C733        H736   1.082       .  S
C734        C735   1.381       .  A
C734       C4000   1.479       .  S
C735        H737   1.082       .  S
N738        N739   1.325       .  A
N738        C742   1.342       .  A
N739        C740   1.350       .  A
C740        C741   1.390       .  A
C740        H743   1.081       .  S
C741        C742   1.382       .  A
C741       C3361   1.489       .  S
C742        H744   1.082       .  S
N745        N746   1.322       .  A
N745        C749   1.353       .  A
N745       Cu753   2.098       .  S
N746        C747   1.340       .  A
N746       Cu752   2.062       .  S
C747        C748   1.379       .  A
C747        H750   1.082       .  S
C748        C749   1.391       .  A
C748       C3388   1.484       .  S
C749        H751   1.082       .  S
Cu752       N755   2.061       .  S
Cu753       N763   2.099       .  S
Cu754       N756   2.076       .  S
Cu754       N762   2.079       .  S
N755        N756   1.319       .  A
N755        C759   1.340       .  A
N756        C757   1.350       .  A
C757        C758   1.389       .  A
C757        H760   1.082       .  S
C758        C759   1.382       .  A
C758       C3337   1.482       .  S
C759        H761   1.082       .  S
N762        N763   1.325       .  A
N762        C766   1.343       .  A
N763        C764   1.349       .  A
C764        C765   1.389       .  A
C764        H767   1.082       .  S
C765        C766   1.384       .  A
C765       C3364   1.491       .  S
C766        H768   1.081       .  S
N769        N770   1.320       .  A
N769        C773   1.353       .  A
N769       Cu777   2.094       .  S
N770        C771   1.339       .  A
N770       Cu776   2.060       .  S
C771        C772   1.383       .  A
C771        H774   1.081       .  S
C772        C773   1.392       .  A
C772       C3484   1.489       .  S
C773        H775   1.082       .  S
Cu776       N779   2.060       .  S
Cu777       N787   2.096       .  S
Cu778       N780   2.090       .  S
Cu778       N786   2.092       .  S
N779        N780   1.320       .  A
N779        C783   1.341       .  A
N780        C781   1.352       .  A
C781        C782   1.389       .  A
C781        H784   1.082       .  S
C782        C783   1.381       .  A
C782       C3313   1.484       .  S
C783        H785   1.082       .  S
N786        N787   1.326       .  A
N786        C790   1.346       .  A
N787        C788   1.349       .  A
C788        C789   1.387       .  A
C788        H791   1.082       .  S
C789        C790   1.385       .  A
C789       C3325   1.490       .  S
C790        H792   1.082       .  S
N793        N794   1.321       .  A
N793        C797   1.353       .  A
N793       Cu801   2.096       .  S
N794        C795   1.340       .  A
N794       Cu800   2.060       .  S
C795        C796   1.381       .  A
C795        H798   1.082       .  S
C796        C797   1.391       .  A
C796       C3301   1.485       .  S
C797        H799   1.082       .  S
Cu800       N803   2.060       .  S
Cu801       N811   2.098       .  S
Cu802       N804   2.087       .  S
Cu802       N810   2.089       .  S
N803        N804   1.319       .  A
N803        C807   1.340       .  A
N804        C805   1.350       .  A
C805        C806   1.393       .  A
C805        H808   1.081       .  S
C806        C807   1.384       .  A
C806       C3289   1.490       .  S
C807        H809   1.082       .  S
N810        N811   1.327       .  A
N810        C814   1.347       .  A
N811        C812   1.349       .  A
C812        C813   1.384       .  A
C812        H815   1.082       .  S
C813        C814   1.381       .  A
C813       C3328   1.481       .  S
C814        H816   1.082       .  S
N817        N818   1.321       .  A
N817        C821   1.354       .  A
N817       Cu825   2.098       .  S
N818        C819   1.337       .  A
N818       Cu824   2.056       .  S
C819        C820   1.380       .  A
C819        H822   1.082       .  S
C820        C821   1.394       .  A
C820       C3352   1.488       .  S
C821        H823   1.082       .  S
Cu824       N827   2.057       .  S
Cu825       N835   2.101       .  S
Cu826       N828   2.087       .  S
Cu826       N834   2.090       .  S
N827        N828   1.318       .  A
N827        C831   1.340       .  A
N828        C829   1.351       .  A
C829        C830   1.394       .  A
C829        H832   1.081       .  S
C830        C831   1.384       .  A
C830       C3904   1.491       .  S
C831        H833   1.082       .  S
N834        N835   1.326       .  A
N834        C838   1.345       .  A
N835        C836   1.349       .  A
C836        C837   1.389       .  A
C836        H839   1.082       .  S
C837        C838   1.386       .  A
C837       C3277   1.493       .  S
C838        H840   1.081       .  S
N841        N842   1.323       .  A
N841        C845   1.353       .  A
N841       Cu849   2.100       .  S
N842        C843   1.340       .  A
N842       Cu848   2.065       .  S
C843        C844   1.381       .  A
C843        H846   1.082       .  S
C844        C845   1.391       .  A
C844       C3304   1.487       .  S
C845        H847   1.082       .  S
Cu848       N851   2.065       .  S
Cu849       N859   2.101       .  S
Cu850       N852   2.074       .  S
Cu850       N858   2.076       .  S
N851        N852   1.319       .  A
N851        C855   1.342       .  A
N852        C853   1.348       .  A
C853        C854   1.389       .  A
C853        H856   1.081       .  S
C854        C855   1.385       .  A
C854       C3265   1.486       .  S
C855        H857   1.082       .  S
N858        N859   1.324       .  A
N858        C862   1.342       .  A
N859        C860   1.350       .  A
C860        C861   1.391       .  A
C860        H863   1.081       .  S
C861        C862   1.383       .  A
C861       C3280   1.492       .  S
C862        H864   1.082       .  S
N865        N866   1.321       .  A
N865        C869   1.351       .  A
N865       Cu873   2.086       .  S
N866        C867   1.339       .  A
N866       Cu872   2.057       .  S
C867        C868   1.380       .  A
C867        H870   1.082       .  S
C868        C869   1.389       .  A
C868       C3241   1.480       .  S
C869        H871   1.082       .  S
Cu872       N875   2.057       .  S
Cu873       N883   2.088       .  S
Cu874       N876   2.086       .  S
Cu874       N882   2.088       .  S
N875        N876   1.320       .  A
N875        C879   1.339       .  A
N876        C877   1.351       .  A
C877        C878   1.390       .  A
C877        H880   1.082       .  S
C878        C879   1.382       .  A
C878       C3424   1.485       .  S
C879        H881   1.082       .  S
N882        N883   1.325       .  A
N882        C886   1.345       .  A
N883        C884   1.347       .  A
C884        C885   1.388       .  A
C884        H887   1.081       .  S
C885        C886   1.387       .  A
C885       C3253   1.492       .  S
C886        H888   1.082       .  S
N889        N890   1.322       .  A
N889        C893   1.353       .  A
N889       Cu897   2.093       .  S
N890        C891   1.340       .  A
N890       Cu896   2.067       .  S
C891        C892   1.381       .  A
C891        H894   1.082       .  S
C892        C893   1.390       .  A
C892       C3229   1.486       .  S
C893        H895   1.082       .  S
Cu896       N899   2.067       .  S
Cu897       N907   2.095       .  S
Cu898       N900   2.083       .  S
Cu898       N906   2.085       .  S
N899        N900   1.319       .  A
N899        C903   1.342       .  A
N900        C901   1.350       .  A
C901        C902   1.392       .  A
C901        H904   1.081       .  S
C902        C903   1.387       .  A
C902       C3508   1.493       .  S
C903        H905   1.082       .  S
N906        N907   1.325       .  A
N906        C910   1.344       .  A
N907        C908   1.348       .  A
C908        C909   1.388       .  A
C908        H911   1.082       .  S
C909        C910   1.386       .  A
C909       C3256   1.491       .  S
C910        H912   1.081       .  S
N913        N914   1.321       .  A
N913        C917   1.354       .  A
N913       Cu921   2.098       .  S
N914        C915   1.339       .  A
N914       Cu920   2.060       .  S
C915        C916   1.380       .  A
C915        H918   1.082       .  S
C916        C917   1.393       .  A
C916       C3205   1.487       .  S
C917        H919   1.082       .  S
Cu920       N923   2.061       .  S
Cu921       N931   2.100       .  S
Cu922       N924   2.088       .  S
Cu922       N930   2.091       .  S
N923        N924   1.320       .  A
N923        C927   1.341       .  A
N924        C925   1.351       .  A
C925        C926   1.391       .  A
C925        H928   1.082       .  S
C926        C927   1.383       .  A
C926       C3196   1.488       .  S
C927        H929   1.082       .  S
N930        N931   1.326       .  A
N930        C934   1.346       .  A
N931        C932   1.348       .  A
C932        C933   1.390       .  A
C932        H935   1.080       .  S
C933        C934   1.387       .  A
C933       C3217   1.496       .  S
C934        H936   1.082       .  S
N937        N938   1.322       .  A
N937        C941   1.354       .  A
N937       Cu945   2.101       .  S
N938        C939   1.339       .  A
N938       Cu944   2.062       .  S
C939        C940   1.380       .  A
C939        H942   1.082       .  S
C940        C941   1.392       .  A
C940       C3232   1.487       .  S
C941        H943   1.082       .  S
Cu944       N947   2.061       .  S
Cu945       N955   2.103       .  S
Cu946       N948   2.070       .  S
Cu946       N954   2.072       .  S
N947        N948   1.319       .  A
N947        C951   1.341       .  A
N948        C949   1.347       .  A
C949        C950   1.387       .  A
C949        H952   1.082       .  S
C950        C951   1.385       .  A
C950       C3544   1.483       .  S
C951        H953   1.081       .  S
N954        N955   1.325       .  A
N954        C958   1.344       .  A
N955        C956   1.348       .  A
C956        C957   1.390       .  A
C956        H959   1.082       .  S
C957        C958   1.384       .  A
C957       C3220   1.492       .  S
C958        H960   1.081       .  S
N961        N962   1.322       .  A
N961        C965   1.351       .  A
N961       Cu969   2.089       .  S
N962        C963   1.340       .  A
N962       Cu968   2.061       .  S
C963        C964   1.380       .  A
C963        H966   1.082       .  S
C964        C965   1.389       .  A
C964       C3244   1.481       .  S
C965        H967   1.082       .  S
Cu968       N971   2.061       .  S
Cu969       N979   2.091       .  S
Cu970       N972   2.075       .  S
Cu970       N978   2.077       .  S
N971        N972   1.319       .  A
N971        C975   1.340       .  A
N972        C973   1.349       .  A
C973        C974   1.389       .  A
C973        H976   1.082       .  S
C974        C975   1.385       .  A
C974       C3400   1.487       .  S
C975        H977   1.081       .  S
N978        N979   1.325       .  A
N978        C982   1.343       .  A
N979        C980   1.348       .  A
C980        C981   1.386       .  A
C980        H983   1.082       .  S
C981        C982   1.382       .  A
C981       C3181   1.483       .  S
C982        H984   1.082       .  S
N985        N986   1.322       .  A
N985        C989   1.353       .  A
N985       Cu993   2.093       .  S
N986        C987   1.340       .  A
N986       Cu992   2.063       .  S
C987        C988   1.379       .  A
C987        H990   1.082       .  S
C988        C989   1.389       .  A
C988       C3169   1.481       .  S
C989        H991   1.082       .  S
Cu992       N995   2.062       .  S
Cu993      N1003   2.094       .  S
Cu994       N996   2.079       .  S
Cu994      N1002   2.081       .  S
N995        N996   1.319       .  A
N995        C999   1.341       .  A
N996        C997   1.349       .  A
C997        C998   1.390       .  A
C997       H1000   1.082       .  S
C998        C999   1.384       .  A
C998       C3157   1.485       .  S
C999       H1001   1.082       .  S
N1002      N1003   1.326       .  A
N1002      C1006   1.345       .  A
N1003      C1004   1.348       .  A
C1004      C1005   1.385       .  A
C1004      H1007   1.082       .  S
C1005      C1006   1.382       .  A
C1005      C3184   1.481       .  S
C1006      H1008   1.082       .  S
N1009      N1010   1.322       .  A
N1009      C1013   1.353       .  A
N1009     Cu1017   2.100       .  S
N1010      C1011   1.340       .  A
N1010     Cu1016   2.061       .  S
C1011      C1012   1.380       .  A
C1011      H1014   1.082       .  S
C1012      C1013   1.390       .  A
C1012      C3133   1.484       .  S
C1013      H1015   1.082       .  S
Cu1016     N1019   2.061       .  S
Cu1017     N1027   2.102       .  S
Cu1018     N1020   2.086       .  S
Cu1018     N1026   2.088       .  S
N1019      N1020   1.319       .  A
N1019      C1023   1.340       .  A
N1020      C1021   1.351       .  A
C1021      C1022   1.392       .  A
C1021      H1024   1.082       .  S
C1022      C1023   1.385       .  A
C1022      C3712   1.492       .  S
C1023      H1025   1.081       .  S
N1026      N1027   1.327       .  A
N1026      C1030   1.346       .  A
N1027      C1028   1.350       .  A
C1028      C1029   1.386       .  A
C1028      H1031   1.082       .  S
C1029      C1030   1.381       .  A
C1029      C3148   1.484       .  S
C1030      H1032   1.082       .  S
N1033      N1034   1.319       .  A
N1033      C1037   1.354       .  A
N1033     Cu1041   2.100       .  S
N1034      C1035   1.337       .  A
N1034     Cu1040   2.050       .  S
C1035      C1036   1.382       .  A
C1035      H1038   1.082       .  S
C1036      C1037   1.396       .  A
C1036      C3172   1.493       .  S
C1037      H1039   1.081       .  S
Cu1040     N1043   2.050       .  S
Cu1041     N1051   2.103       .  S
Cu1042     N1044   2.092       .  S
Cu1042     N1050   2.096       .  S
N1043      N1044   1.320       .  A
N1043      C1047   1.339       .  A
N1044      C1045   1.351       .  A
C1045      C1046   1.391       .  A
C1045      H1048   1.082       .  S
C1046      C1047   1.380       .  A
C1046      C3121   1.484       .  S
C1047      H1049   1.082       .  S
N1050      N1051   1.328       .  A
N1050      C1054   1.348       .  A
N1051      C1052   1.348       .  A
C1052      C1053   1.386       .  A
C1052      H1055   1.082       .  S
C1053      C1054   1.384       .  A
C1053      C3145   1.488       .  S
C1054      H1056   1.082       .  S
N1057      N1058   1.322       .  A
N1057      C1061   1.353       .  A
N1057     Cu1065   2.096       .  S
N1058      C1059   1.341       .  A
N1058     Cu1064   2.067       .  S
C1059      C1060   1.382       .  A
C1059      H1062   1.082       .  S
C1060      C1061   1.390       .  A
C1060      C3208   1.487       .  S
C1061      H1063   1.082       .  S
Cu1064     N1067   2.066       .  S
Cu1065     N1075   2.098       .  S
Cu1066     N1068   2.080       .  S
Cu1066     N1074   2.083       .  S
N1067      N1068   1.320       .  A
N1067      C1071   1.341       .  A
N1068      C1069   1.350       .  A
C1069      C1070   1.388       .  A
C1069      H1072   1.082       .  S
C1070      C1071   1.382       .  A
C1070      C3097   1.482       .  S
C1071      H1073   1.082       .  S
N1074      N1075   1.326       .  A
N1074      C1078   1.345       .  A
N1075      C1076   1.349       .  A
C1076      C1077   1.386       .  A
C1076      H1079   1.082       .  S
C1077      C1078   1.381       .  A
C1077      C3109   1.483       .  S
C1078      H1080   1.082       .  S
N1081      N1082   1.321       .  A
N1081      C1085   1.352       .  A
N1081     Cu1089   2.092       .  S
N1082      C1083   1.341       .  A
N1082     Cu1088   2.065       .  S
C1083      C1084   1.382       .  A
C1083      H1086   1.082       .  S
C1084      C1085   1.391       .  A
C1084      C3085   1.488       .  S
C1085      H1087   1.082       .  S
Cu1088     N1091   2.065       .  S
Cu1089     N1099   2.093       .  S
Cu1090     N1092   2.087       .  S
Cu1090     N1098   2.089       .  S
N1091      N1092   1.321       .  A
N1091      C1095   1.341       .  A
N1092      C1093   1.351       .  A
C1093      C1094   1.388       .  A
C1093      H1096   1.082       .  S
C1094      C1095   1.381       .  A
C1094      C3292   1.482       .  S
C1095      H1097   1.082       .  S
N1098      N1099   1.326       .  A
N1098      C1102   1.347       .  A
N1099      C1100   1.347       .  A
C1100      C1101   1.385       .  A
C1100      H1103   1.082       .  S
C1101      C1102   1.384       .  A
C1101      C3112   1.485       .  S
C1102      H1104   1.082       .  S
N1105      N1106   1.322       .  A
N1105      C1109   1.353       .  A
N1105     Cu1113   2.099       .  S
N1106      C1107   1.340       .  A
N1106     Cu1112   2.061       .  S
C1107      C1108   1.380       .  A
C1107      H1110   1.082       .  S
C1108      C1109   1.392       .  A
C1108      C3136   1.486       .  S
C1109      H1111   1.082       .  S
Cu1112     N1115   2.061       .  S
Cu1113     N1123   2.101       .  S
Cu1114     N1116   2.088       .  S
Cu1114     N1122   2.091       .  S
N1115      N1116   1.320       .  A
N1115      C1119   1.341       .  A
N1116      C1117   1.351       .  A
C1117      C1118   1.390       .  A
C1117      H1120   1.082       .  S
C1118      C1119   1.382       .  A
C1118      C3628   1.485       .  S
C1119      H1121   1.082       .  S
N1122      N1123   1.326       .  A
N1122      C1126   1.345       .  A
N1123      C1124   1.350       .  A
C1124      C1125   1.390       .  A
C1124      H1127   1.081       .  S
C1125      C1126   1.386       .  A
C1125      C3073   1.494       .  S
C1126      H1128   1.082       .  S
N1129      N1130   1.322       .  A
N1129      C1133   1.354       .  A
N1129     Cu1137   2.104       .  S
N1130      C1131   1.340       .  A
N1130     Cu1136   2.060       .  S
C1131      C1132   1.379       .  A
C1131      H1134   1.082       .  S
C1132      C1133   1.391       .  A
C1132      C3088   1.483       .  S
C1133      H1135   1.082       .  S
Cu1136     N1139   2.060       .  S
Cu1137     N1147   2.106       .  S
Cu1138     N1140   2.085       .  S
Cu1138     N1146   2.087       .  S
N1139      N1140   1.319       .  A
N1139      C1143   1.341       .  A
N1140      C1141   1.351       .  A
C1141      C1142   1.390       .  A
C1141      H1144   1.082       .  S
C1142      C1143   1.383       .  A
C1142      C3268   1.486       .  S
C1143      H1145   1.082       .  S
N1146      N1147   1.325       .  A
N1146      C1150   1.345       .  A
N1147      C1148   1.350       .  A
C1148      C1149   1.391       .  A
C1148      H1151   1.082       .  S
C1149      C1150   1.387       .  A
C1149      C3076   1.497       .  S
C1150      H1152   1.081       .  S
N1153      N1154   1.321       .  A
N1153      C1157   1.354       .  A
N1153     Cu1161   2.098       .  S
N1154      C1155   1.339       .  A
N1154     Cu1160   2.057       .  S
C1155      C1156   1.379       .  A
C1155      H1158   1.082       .  S
C1156      C1157   1.391       .  A
C1156      C3049   1.484       .  S
C1157      H1159   1.082       .  S
Cu1160     N1163   2.057       .  S
Cu1161     N1171   2.101       .  S
Cu1162     N1164   2.092       .  S
Cu1162     N1170   2.095       .  S
N1163      N1164   1.319       .  A
N1163      C1167   1.340       .  A
N1164      C1165   1.352       .  A
C1165      C1166   1.393       .  A
C1165      H1168   1.082       .  S
C1166      C1167   1.383       .  A
C1166      C3841   1.490       .  S
C1167      H1169   1.082       .  S
N1170      N1171   1.328       .  A
N1170      C1174   1.346       .  A
N1171      C1172   1.349       .  A
C1172      C1173   1.384       .  A
C1172      H1175   1.082       .  S
C1173      C1174   1.383       .  A
C1173      C3061   1.484       .  S
C1174      H1176   1.082       .  S
N1177      N1178   1.320       .  A
N1177      C1181   1.353       .  A
N1177     Cu1185   2.095       .  S
N1178      C1179   1.338       .  A
N1178     Cu1184   2.051       .  S
C1179      C1180   1.379       .  A
C1179      H1182   1.082       .  S
C1180      C1181   1.392       .  A
C1180      C3037   1.483       .  S
C1181      H1183   1.082       .  S
Cu1184     N1187   2.051       .  S
Cu1185     N1195   2.098       .  S
Cu1186     N1188   2.086       .  S
Cu1186     N1194   2.089       .  S
N1187      N1188   1.319       .  A
N1187      C1191   1.339       .  A
N1188      C1189   1.351       .  A
C1189      C1190   1.391       .  A
C1189      H1192   1.082       .  S
C1190      C1191   1.382       .  A
C1190      C3025   1.484       .  S
C1191      H1193   1.082       .  S
N1194      N1195   1.327       .  A
N1194      C1198   1.346       .  A
N1195      C1196   1.348       .  A
C1196      C1197   1.386       .  A
C1196      H1199   1.082       .  S
C1197      C1198   1.384       .  A
C1197      C3064   1.487       .  S
C1198      H1200   1.082       .  S
N1201      N1202   1.322       .  A
N1201      C1205   1.352       .  A
N1201     Cu1209   2.092       .  S
N1202      C1203   1.340       .  A
N1202     Cu1208   2.063       .  S
C1203      C1204   1.380       .  A
C1203      H1206   1.082       .  S
C1204      C1205   1.390       .  A
C1204      C3001   1.483       .  S
C1205      H1207   1.082       .  S
Cu1208     N1211   2.063       .  S
Cu1209     N1219   2.094       .  S
Cu1210     N1212   2.081       .  S
Cu1210     N1218   2.082       .  S
N1211      N1212   1.319       .  A
N1211      C1215   1.341       .  A
N1212      C1213   1.350       .  A
C1213      C1214   1.390       .  A
C1213      H1216   1.081       .  S
C1214      C1215   1.384       .  A
C1214      C2989   1.488       .  S
C1215      H1217   1.082       .  S
N1218      N1219   1.326       .  A
N1218      C1222   1.344       .  A
N1219      C1220   1.349       .  A
C1220      C1221   1.385       .  A
C1220      H1223   1.082       .  S
C1221      C1222   1.380       .  A
C1221      C3013   1.480       .  S
C1222      H1224   1.082       .  S
N1225      N1226   1.321       .  A
N1225      C1229   1.350       .  A
N1225     Cu1233   2.080       .  S
N1226      C1227   1.341       .  A
N1226     Cu1232   2.066       .  S
C1227      C1228   1.382       .  A
C1227      H1230   1.082       .  S
C1228      C1229   1.386       .  A
C1228      C3040   1.480       .  S
C1229      H1231   1.082       .  S
Cu1232     N1235   2.065       .  S
Cu1233     N1243   2.082       .  S
Cu1234     N1236   2.083       .  S
Cu1234     N1242   2.085       .  S
N1235      N1236   1.322       .  A
N1235      C1239   1.342       .  A
N1236      C1237   1.349       .  A
C1237      C1238   1.386       .  A
C1237      H1240   1.082       .  S
C1238      C1239   1.380       .  A
C1238      C2977   1.476       .  S
C1239      H1241   1.082       .  S
N1242      N1243   1.324       .  A
N1242      C1246   1.346       .  A
N1243      C1244   1.345       .  A
C1244      C1245   1.384       .  A
C1244      H1247   1.082       .  S
C1245      C1246   1.385       .  A
C1245      C3016   1.485       .  S
C1246      H1248   1.082       .  S
N1249      N1250   1.323       .  A
N1249      C1253   1.354       .  A
N1249     Cu1257   2.106       .  S
N1250      C1251   1.340       .  A
N1250     Cu1256   2.060       .  S
C1251      C1252   1.378       .  A
C1251      H1254   1.082       .  S
C1252      C1253   1.391       .  A
C1252      C3052   1.484       .  S
C1253      H1255   1.082       .  S
Cu1256     N1259   2.059       .  S
Cu1257     N1267   2.108       .  S
Cu1258     N1260   2.076       .  S
Cu1258     N1266   2.079       .  S
N1259      N1260   1.318       .  A
N1259      C1263   1.340       .  A
N1260      C1261   1.349       .  A
C1261      C1262   1.390       .  A
C1261      H1264   1.081       .  S
C1262      C1263   1.384       .  A
C1262      C3760   1.486       .  S
C1263      H1265   1.082       .  S
N1266      N1267   1.325       .  A
N1266      C1270   1.343       .  A
N1267      C1268   1.351       .  A
C1268      C1269   1.392       .  A
C1268      H1271   1.082       .  S
C1269      C1270   1.383       .  A
C1269      C2965   1.492       .  S
C1270      H1272   1.082       .  S
N1273      N1274   1.321       .  A
N1273      C1277   1.354       .  A
N1273     Cu1281   2.104       .  S
N1274      C1275   1.340       .  A
N1274     Cu1280   2.061       .  S
C1275      C1276   1.382       .  A
C1275      H1278   1.082       .  S
C1276      C1277   1.394       .  A
C1276      C2953   1.491       .  S
C1277      H1279   1.082       .  S
Cu1280     N1283   2.060       .  S
Cu1281     N1291   2.106       .  S
Cu1282     N1284   2.080       .  S
Cu1282     N1290   2.082       .  S
N1283      N1284   1.320       .  A
N1283      C1287   1.340       .  A
N1284      C1285   1.350       .  A
C1285      C1286   1.388       .  A
C1285      H1288   1.082       .  S
C1286      C1287   1.382       .  A
C1286      C2941   1.481       .  S
C1287      H1289   1.082       .  S
N1290      N1291   1.325       .  A
N1290      C1294   1.344       .  A
N1291      C1292   1.351       .  A
C1292      C1293   1.391       .  A
C1292      H1295   1.082       .  S
C1293      C1294   1.385       .  A
C1293      C2968   1.494       .  S
C1294      H1296   1.081       .  S
N1297      N1298   1.321       .  A
N1297      C1301   1.355       .  A
N1297     Cu1305   2.107       .  S
N1298      C1299   1.340       .  A
N1298     Cu1304   2.057       .  S
C1299      C1300   1.379       .  A
C1299      H1302   1.082       .  S
C1300      C1301   1.393       .  A
C1300      C2917   1.487       .  S
C1301      H1303   1.082       .  S
Cu1304     N1307   2.058       .  S
Cu1305     N1315   2.109       .  S
Cu1306     N1308   2.091       .  S
Cu1306     N1314   2.094       .  S
N1307      N1308   1.320       .  A
N1307      C1311   1.342       .  A
N1308      C1309   1.351       .  A
C1309      C1310   1.389       .  A
C1309      H1312   1.082       .  S
C1310      C1311   1.380       .  A
C1310      C2905   1.482       .  S
C1311      H1313   1.082       .  S
N1314      N1315   1.327       .  A
N1314      C1318   1.348       .  A
N1315      C1316   1.350       .  A
C1316      C1317   1.388       .  A
C1316      H1319   1.082       .  S
C1317      C1318   1.383       .  A
C1317      C2929   1.489       .  S
C1318      H1320   1.082       .  S
N1321      N1322   1.321       .  A
N1321      C1325   1.355       .  A
N1321     Cu1329   2.108       .  S
N1322      C1323   1.339       .  A
N1322     Cu1328   2.053       .  S
C1323      C1324   1.380       .  A
C1323      H1326   1.082       .  S
C1324      C1325   1.394       .  A
C1324      C2956   1.489       .  S
C1325      H1327   1.082       .  S
Cu1328     N1331   2.053       .  S
Cu1329     N1339   2.111       .  S
Cu1330     N1332   2.088       .  S
Cu1330     N1338   2.091       .  S
N1331      N1332   1.319       .  A
N1331      C1335   1.339       .  A
N1332      C1333   1.352       .  A
C1333      C1334   1.390       .  A
C1333      H1336   1.082       .  S
C1334      C1335   1.381       .  A
C1334      C2893   1.483       .  S
C1335      H1337   1.082       .  S
N1338      N1339   1.327       .  A
N1338      C1342   1.346       .  A
N1339      C1340   1.351       .  A
C1340      C1341   1.389       .  A
C1340      H1343   1.082       .  S
C1341      C1342   1.383       .  A
C1341      C2932   1.490       .  S
C1342      H1344   1.082       .  S
N1345      N1346   1.322       .  A
N1345      C1349   1.353       .  A
N1345     Cu1353   2.096       .  S
N1346      C1347   1.339       .  A
N1346     Cu1352   2.056       .  S
C1347      C1348   1.378       .  A
C1347      H1350   1.082       .  S
C1348      C1349   1.390       .  A
C1348      C2869   1.480       .  S
C1349      H1351   1.082       .  S
Cu1352     N1355   2.056       .  S
Cu1353     N1363   2.099       .  S
Cu1354     N1356   2.083       .  S
Cu1354     N1362   2.085       .  S
N1355      N1356   1.319       .  A
N1355      C1359   1.341       .  A
N1356      C1357   1.350       .  A
C1357      C1358   1.388       .  A
C1357      H1360   1.082       .  S
C1358      C1359   1.382       .  A
C1358      C3928   1.482       .  S
C1359      H1361   1.082       .  S
N1362      N1363   1.325       .  A
N1362      C1366   1.344       .  A
N1363      C1364   1.350       .  A
C1364      C1365   1.389       .  A
C1364      H1367   1.082       .  S
C1365      C1366   1.385       .  A
C1365      C2881   1.493       .  S
C1366      H1368   1.081       .  S
N1369      N1370   1.321       .  A
N1369      C1373   1.353       .  A
N1369     Cu1377   2.101       .  S
N1370      C1371   1.341       .  A
N1370     Cu1376   2.063       .  S
C1371      C1372   1.381       .  A
C1371      H1374   1.082       .  S
C1372      C1373   1.392       .  A
C1372      C2920   1.488       .  S
C1373      H1375   1.082       .  S
Cu1376     N1379   2.063       .  S
Cu1377     N1387   2.103       .  S
Cu1378     N1380   2.084       .  S
Cu1378     N1386   2.087       .  S
N1379      N1380   1.320       .  A
N1379      C1383   1.340       .  A
N1380      C1381   1.351       .  A
C1381      C1382   1.391       .  A
C1381      H1384   1.081       .  S
C1382      C1383   1.384       .  A
C1382      C2857   1.488       .  S
C1383      H1385   1.082       .  S
N1386      N1387   1.324       .  A
N1386      C1390   1.344       .  A
N1387      C1388   1.350       .  A
C1388      C1389   1.394       .  A
C1388      H1391   1.080       .  S
C1389      C1390   1.389       .  A
C1389      C2884   1.502       .  S
C1390      H1392   1.081       .  S
N1393      N1394   1.320       .  A
N1393      C1397   1.350       .  A
N1393     Cu1401   2.082       .  S
N1394      C1395   1.341       .  A
N1394     Cu1400   2.059       .  S
C1395      C1396   1.381       .  A
C1395      H1398   1.082       .  S
C1396      C1397   1.388       .  A
C1396      C3004   1.479       .  S
C1397      H1399   1.082       .  S
Cu1400     N1403   2.059       .  S
Cu1401     N1411   2.084       .  S
Cu1402     N1404   2.088       .  S
Cu1402     N1410   2.090       .  S
N1403      N1404   1.321       .  A
N1403      C1407   1.339       .  A
N1404      C1405   1.351       .  A
C1405      C1406   1.390       .  A
C1405      H1408   1.082       .  S
C1406      C1407   1.381       .  A
C1406      C2833   1.484       .  S
C1407      H1409   1.082       .  S
N1410      N1411   1.326       .  A
N1410      C1414   1.347       .  A
N1411      C1412   1.345       .  A
C1412      C1413   1.384       .  A
C1412      H1415   1.082       .  S
C1413      C1414   1.386       .  A
C1413      C2845   1.485       .  S
C1414      H1416   1.082       .  S
N1417      N1418   1.320       .  A
N1417      C1421   1.351       .  A
N1417     Cu1425   2.080       .  S
N1418      C1419   1.339       .  A
N1418     Cu1424   2.063       .  S
C1419      C1420   1.383       .  A
C1419      H1422   1.082       .  S
C1420      C1421   1.390       .  A
C1420      C2872   1.485       .  S
C1421      H1423   1.082       .  S
Cu1424     N1427   2.063       .  S
Cu1425     N1435   2.082       .  S
Cu1426     N1428   2.089       .  S
Cu1426     N1434   2.091       .  S
N1427      N1428   1.320       .  A
N1427      C1431   1.341       .  A
N1428      C1429   1.351       .  A
C1429      C1430   1.391       .  A
C1429      H1432   1.082       .  S
C1430      C1431   1.383       .  A
C1430      C3976   1.487       .  S
C1431      H1433   1.082       .  S
N1434      N1435   1.326       .  A
N1434      C1438   1.346       .  A
N1435      C1436   1.346       .  A
C1436      C1437   1.381       .  A
C1436      H1439   1.082       .  S
C1437      C1438   1.384       .  A
C1437      C2848   1.480       .  S
C1438      H1440   1.082       .  S
N1441      N1442   1.322       .  A
N1441      C1445   1.352       .  A
N1441     Cu1449   2.093       .  S
N1442      C1443   1.341       .  A
N1442     Cu1448   2.068       .  S
C1443      C1444   1.382       .  A
C1443      H1446   1.082       .  S
C1444      C1445   1.390       .  A
C1444      C2809   1.486       .  S
C1445      H1447   1.082       .  S
Cu1448     N1451   2.068       .  S
Cu1449     N1459   2.095       .  S
Cu1450     N1452   2.083       .  S
Cu1450     N1458   2.085       .  S
N1451      N1452   1.321       .  A
N1451      C1455   1.342       .  A
N1452      C1453   1.349       .  A
C1453      C1454   1.389       .  A
C1453      H1456   1.082       .  S
C1454      C1455   1.384       .  A
C1454      C3472   1.486       .  S
C1455      H1457   1.082       .  S
N1458      N1459   1.325       .  A
N1458      C1462   1.346       .  A
N1459      C1460   1.348       .  A
C1460      C1461   1.386       .  A
C1460      H1463   1.082       .  S
C1461      C1462   1.383       .  A
C1461      C2821   1.486       .  S
C1462      H1464   1.082       .  S
N1465      N1466   1.322       .  A
N1465      C1469   1.354       .  A
N1465     Cu1473   2.098       .  S
N1466      C1467   1.339       .  A
N1466     Cu1472   2.059       .  S
C1467      C1468   1.379       .  A
C1467      H1470   1.082       .  S
C1468      C1469   1.390       .  A
C1468      C2797   1.483       .  S
C1469      H1471   1.082       .  S
Cu1472     N1475   2.059       .  S
Cu1473     N1483   2.100       .  S
Cu1474     N1476   2.076       .  S
Cu1474     N1482   2.079       .  S
N1475      N1476   1.319       .  A
N1475      C1479   1.339       .  A
N1476      C1477   1.350       .  A
C1477      C1478   1.391       .  A
C1477      H1480   1.081       .  S
C1478      C1479   1.384       .  A
C1478      C2944   1.487       .  S
C1479      H1481   1.082       .  S
N1482      N1483   1.326       .  A
N1482      C1486   1.344       .  A
N1483      C1484   1.350       .  A
C1484      C1485   1.387       .  A
C1484      H1487   1.082       .  S
C1485      C1486   1.380       .  A
C1485      C2824   1.484       .  S
C1486      H1488   1.082       .  S
N1489      N1490   1.321       .  A
N1489      C1493   1.352       .  A
N1489     Cu1497   2.090       .  S
N1490      C1491   1.339       .  A
N1490     Cu1496   2.055       .  S
C1491      C1492   1.380       .  A
C1491      H1494   1.082       .  S
C1492      C1493   1.389       .  A
C1492      C2773   1.482       .  S
C1493      H1495   1.082       .  S
Cu1496     N1499   2.054       .  S
Cu1497     N1507   2.092       .  S
Cu1498     N1500   2.079       .  S
Cu1498     N1506   2.081       .  S
N1499      N1500   1.320       .  A
N1499      C1503   1.339       .  A
N1500      C1501   1.350       .  A
C1501      C1502   1.388       .  A
C1501      H1504   1.082       .  S
C1502      C1503   1.380       .  A
C1502      C2761   1.479       .  S
C1503      H1505   1.082       .  S
N1506      N1507   1.326       .  A
N1506      C1510   1.344       .  A
N1507      C1508   1.348       .  A
C1508      C1509   1.384       .  A
C1508      H1511   1.082       .  S
C1509      C1510   1.381       .  A
C1509      C2785   1.481       .  S
C1510      H1512   1.082       .  S
N1513      N1514   1.321       .  A
N1513      C1517   1.353       .  A
N1513     Cu1521   2.093       .  S
N1514      C1515   1.339       .  A
N1514     Cu1520   2.058       .  S
C1515      C1516   1.380       .  A
C1515      H1518   1.082       .  S
C1516      C1517   1.391       .  A
C1516      C2800   1.484       .  S
C1517      H1519   1.082       .  S
Cu1520     N1523   2.058       .  S
Cu1521     N1531   2.096       .  S
Cu1522     N1524   2.079       .  S
Cu1522     N1530   2.081       .  S
N1523      N1524   1.319       .  A
N1523      C1527   1.339       .  A
N1524      C1525   1.350       .  A
C1525      C1526   1.390       .  A
C1525      H1528   1.082       .  S
C1526      C1527   1.383       .  A
C1526      C2896   1.485       .  S
C1527      H1529   1.082       .  S
N1530      N1531   1.326       .  A
N1530      C1534   1.344       .  A
N1531      C1532   1.348       .  A
C1532      C1533   1.385       .  A
C1532      H1535   1.082       .  S
C1533      C1534   1.381       .  A
C1533      C2788   1.481       .  S
C1534      H1536   1.082       .  S
N1537      N1538   1.320       .  A
N1537      C1541   1.354       .  A
N1537     Cu1545   2.098       .  S
N1538      C1539   1.339       .  A
N1538     Cu1544   2.058       .  S
C1539      C1540   1.383       .  A
C1539      H1542   1.082       .  S
C1540      C1541   1.395       .  A
C1540      C2737   1.493       .  S
C1541      H1543   1.081       .  S
Cu1544     N1547   2.058       .  S
Cu1545     N1555   2.101       .  S
Cu1546     N1548   2.091       .  S
Cu1546     N1554   2.094       .  S
N1547      N1548   1.320       .  A
N1547      C1551   1.339       .  A
N1548      C1549   1.353       .  A
C1549      C1550   1.391       .  A
C1549      H1552   1.082       .  S
C1550      C1551   1.381       .  A
C1550      C2992   1.485       .  S
C1551      H1553   1.082       .  S
N1554      N1555   1.327       .  A
N1554      C1558   1.347       .  A
N1555      C1556   1.348       .  A
C1556      C1557   1.385       .  A
C1556      H1559   1.082       .  S
C1557      C1558   1.383       .  A
C1557      C2749   1.486       .  S
C1558      H1560   1.082       .  S
N1561      N1562   1.321       .  A
N1561      C1565   1.352       .  A
N1561     Cu1569   2.095       .  S
N1562      C1563   1.339       .  A
N1562     Cu1568   2.053       .  S
C1563      C1564   1.379       .  A
C1563      H1566   1.082       .  S
C1564      C1565   1.390       .  A
C1564      C2725   1.481       .  S
C1565      H1567   1.082       .  S
Cu1568     N1571   2.053       .  S
Cu1569     N1579   2.098       .  S
Cu1570     N1572   2.078       .  S
Cu1570     N1578   2.081       .  S
N1571      N1572   1.319       .  A
N1571      C1575   1.339       .  A
N1572      C1573   1.350       .  A
C1573      C1574   1.389       .  A
C1573      H1576   1.082       .  S
C1574      C1575   1.381       .  A
C1574      C2713   1.482       .  S
C1575      H1577   1.082       .  S
N1578      N1579   1.326       .  A
N1578      C1582   1.343       .  A
N1579      C1580   1.350       .  A
C1580      C1581   1.387       .  A
C1580      H1583   1.082       .  S
C1581      C1582   1.381       .  A
C1581      C2752   1.484       .  S
C1582      H1584   1.082       .  S
N1585      N1586   1.321       .  A
N1585      C1589   1.352       .  A
N1585     Cu1593   2.092       .  S
N1586      C1587   1.341       .  A
N1586     Cu1592   2.063       .  S
C1587      C1588   1.382       .  A
C1587      H1590   1.082       .  S
C1588      C1589   1.391       .  A
C1588      C2812   1.487       .  S
C1589      H1591   1.082       .  S
Cu1592     N1595   2.063       .  S
Cu1593     N1603   2.094       .  S
Cu1594     N1596   2.090       .  S
Cu1594     N1602   2.091       .  S
N1595      N1596   1.320       .  A
N1595      C1599   1.340       .  A
N1596      C1597   1.351       .  A
C1597      C1598   1.393       .  A
C1597      H1600   1.081       .  S
C1598      C1599   1.384       .  A
C1598      C3316   1.491       .  S
C1599      H1601   1.082       .  S
N1602      N1603   1.327       .  A
N1602      C1606   1.347       .  A
N1603      C1604   1.348       .  A
C1604      C1605   1.383       .  A
C1604      H1607   1.082       .  S
C1605      C1606   1.383       .  A
C1605      C2701   1.481       .  S
C1606      H1608   1.082       .  S
N1609      N1610   1.321       .  A
N1609      C1613   1.352       .  A
N1609     Cu1617   2.093       .  S
N1610      C1611   1.338       .  A
N1610     Cu1616   2.052       .  S
C1611      C1612   1.379       .  A
C1611      H1614   1.082       .  S
C1612      C1613   1.391       .  A
C1612      C2728   1.483       .  S
C1613      H1615   1.082       .  S
Cu1616     N1619   2.051       .  S
Cu1617     N1627   2.096       .  S
Cu1618     N1620   2.084       .  S
Cu1618     N1626   2.087       .  S
N1619      N1620   1.319       .  A
N1619      C1623   1.339       .  A
N1620      C1621   1.351       .  A
C1621      C1622   1.392       .  A
C1621      H1624   1.081       .  S
C1622      C1623   1.382       .  A
C1622      C2689   1.485       .  S
C1623      H1625   1.082       .  S
N1626      N1627   1.326       .  A
N1626      C1630   1.345       .  A
N1627      C1628   1.348       .  A
C1628      C1629   1.386       .  A
C1628      H1631   1.082       .  S
C1629      C1630   1.384       .  A
C1629      C2704   1.487       .  S
C1630      H1632   1.082       .  S
N1633      N1634   1.321       .  A
N1633      C1637   1.352       .  A
N1633     Cu1641   2.089       .  S
N1634      C1635   1.339       .  A
N1634     Cu1640   2.059       .  S
C1635      C1636   1.380       .  A
C1635      H1638   1.082       .  S
C1636      C1637   1.390       .  A
C1636      C2776   1.483       .  S
C1637      H1639   1.082       .  S
Cu1640     N1643   2.059       .  S
Cu1641     N1651   2.091       .  S
Cu1642     N1644   2.092       .  S
Cu1642     N1650   2.094       .  S
N1643      N1644   1.320       .  A
N1643      C1647   1.340       .  A
N1644      C1645   1.352       .  A
C1645      C1646   1.391       .  A
C1645      H1648   1.082       .  S
C1646      C1647   1.381       .  A
C1646      C2665   1.485       .  S
C1647      H1649   1.082       .  S
N1650      N1651   1.327       .  A
N1650      C1654   1.347       .  A
N1651      C1652   1.347       .  A
C1652      C1653   1.384       .  A
C1652      H1655   1.082       .  S
C1653      C1654   1.384       .  A
C1653      C2677   1.484       .  S
C1654      H1656   1.082       .  S
N1657      N1658   1.322       .  A
N1657      C1661   1.353       .  A
N1657     Cu1665   2.095       .  S
N1658      C1659   1.340       .  A
N1658     Cu1664   2.063       .  S
C1659      C1660   1.380       .  A
C1659      H1662   1.082       .  S
C1660      C1661   1.390       .  A
C1660      C2653   1.484       .  S
C1661      H1663   1.082       .  S
Cu1664     N1667   2.064       .  S
Cu1665     N1675   2.097       .  S
Cu1666     N1668   2.080       .  S
Cu1666     N1674   2.082       .  S
N1667      N1668   1.320       .  A
N1667      C1671   1.341       .  A
N1668      C1669   1.350       .  A
C1669      C1670   1.388       .  A
C1669      H1672   1.082       .  S
C1670      C1671   1.383       .  A
C1670      C3376   1.483       .  S
C1671      H1673   1.082       .  S
N1674      N1675   1.326       .  A
N1674      C1678   1.345       .  A
N1675      C1676   1.349       .  A
C1676      C1677   1.386       .  A
C1676      H1679   1.082       .  S
C1677      C1678   1.381       .  A
C1677      C2680   1.482       .  S
C1678      H1680   1.082       .  S
N1681      N1682   1.321       .  A
N1681      C1685   1.355       .  A
N1681     Cu1689   2.107       .  S
N1682      C1683   1.339       .  A
N1682     Cu1688   2.059       .  S
C1683      C1684   1.381       .  A
C1683      H1686   1.082       .  S
C1684      C1685   1.394       .  A
C1684      C2740   1.490       .  S
C1685      H1687   1.082       .  S
Cu1688     N1691   2.059       .  S
Cu1689     N1699   2.109       .  S
Cu1690     N1692   2.076       .  S
Cu1690     N1698   2.079       .  S
N1691      N1692   1.319       .  A
N1691      C1695   1.340       .  A
N1692      C1693   1.350       .  A
C1693      C1694   1.390       .  A
C1693      H1696   1.082       .  S
C1694      C1695   1.383       .  A
C1694      C2836   1.484       .  S
C1695      H1697   1.082       .  S
N1698      N1699   1.326       .  A
N1698      C1702   1.343       .  A
N1699      C1700   1.351       .  A
C1700      C1701   1.391       .  A
C1700      H1703   1.081       .  S
C1701      C1702   1.383       .  A
C1701      C2641   1.491       .  S
C1702      H1704   1.082       .  S
N1705      N1706   1.321       .  A
N1705      C1709   1.351       .  A
N1705     Cu1713   2.091       .  S
N1706      C1707   1.341       .  A
N1706     Cu1712   2.063       .  S
C1707      C1708   1.381       .  A
C1707      H1710   1.082       .  S
C1708      C1709   1.390       .  A
C1708      C2656   1.484       .  S
C1709      H1711   1.082       .  S
Cu1712     N1715   2.063       .  S
Cu1713     N1723   2.092       .  S
Cu1714     N1716   2.082       .  S
Cu1714     N1722   2.084       .  S
N1715      N1716   1.320       .  A
N1715      C1719   1.340       .  A
N1716      C1717   1.350       .  A
C1717      C1718   1.389       .  A
C1717      H1720   1.082       .  S
C1718      C1719   1.384       .  A
C1718      C3340   1.486       .  S
C1719      H1721   1.082       .  S
N1722      N1723   1.325       .  A
N1722      C1726   1.345       .  A
N1723      C1724   1.348       .  A
C1724      C1725   1.387       .  A
C1724      H1727   1.082       .  S
C1725      C1726   1.386       .  A
C1725      C2644   1.489       .  S
C1726      H1728   1.081       .  S
N1729      N1730   1.321       .  A
N1729      C1733   1.351       .  A
N1729     Cu1737   2.087       .  S
N1730      C1731   1.339       .  A
N1730     Cu1736   2.059       .  S
C1731      C1732   1.381       .  A
C1731      H1734   1.082       .  S
C1732      C1733   1.390       .  A
C1732      C2617   1.483       .  S
C1733      H1735   1.082       .  S
Cu1736     N1739   2.058       .  S
Cu1737     N1747   2.089       .  S
Cu1738     N1740   2.090       .  S
Cu1738     N1746   2.092       .  S
N1739      N1740   1.320       .  A
N1739      C1743   1.341       .  A
N1740      C1741   1.350       .  A
C1741      C1742   1.392       .  A
C1741      H1744   1.082       .  S
C1742      C1743   1.384       .  A
C1742      C3532   1.489       .  S
C1743      H1745   1.081       .  S
N1746      N1747   1.325       .  A
N1746      C1750   1.346       .  A
N1747      C1748   1.347       .  A
C1748      C1749   1.387       .  A
C1748      H1751   1.082       .  S
C1749      C1750   1.388       .  A
C1749      C2629   1.492       .  S
C1750      H1752   1.081       .  S
N1753      N1754   1.322       .  A
N1753      C1757   1.353       .  A
N1753     Cu1761   2.094       .  S
N1754      C1755   1.341       .  A
N1754     Cu1760   2.068       .  S
C1755      C1756   1.381       .  A
C1755      H1758   1.082       .  S
C1756      C1757   1.390       .  A
C1756      C2608   1.483       .  S
C1757      H1759   1.082       .  S
Cu1760     N1763   2.068       .  S
Cu1761     N1771   2.095       .  S
Cu1762     N1764   2.086       .  S
Cu1762     N1770   2.088       .  S
N1763      N1764   1.321       .  A
N1763      C1767   1.342       .  A
N1764      C1765   1.350       .  A
C1765      C1766   1.389       .  A
C1765      H1768   1.082       .  S
C1766      C1767   1.384       .  A
C1766      C2593   1.486       .  S
C1767      H1769   1.082       .  S
N1770      N1771   1.325       .  A
N1770      C1774   1.345       .  A
N1771      C1772   1.348       .  A
C1772      C1773   1.390       .  A
C1772      H1775   1.081       .  S
C1773      C1774   1.388       .  A
C1773      C2632   1.495       .  S
C1774      H1776   1.082       .  S
N1777      N1778   1.321       .  A
N1777      C1781   1.353       .  A
N1777     Cu1785   2.097       .  S
N1778      C1779   1.340       .  A
N1778     Cu1784   2.061       .  S
C1779      C1780   1.381       .  A
C1779      H1782   1.082       .  S
C1780      C1781   1.392       .  A
C1780      C2569   1.487       .  S
C1781      H1783   1.082       .  S
Cu1784     N1787   2.061       .  S
Cu1785     N1795   2.099       .  S
Cu1786     N1788   2.087       .  S
Cu1786     N1794   2.089       .  S
N1787      N1788   1.319       .  A
N1787      C1791   1.341       .  A
N1788      C1789   1.350       .  A
C1789      C1790   1.393       .  A
C1789      H1792   1.082       .  S
C1790      C1791   1.386       .  A
C1790      C2908   1.492       .  S
C1791      H1793   1.081       .  S
N1794      N1795   1.327       .  A
N1794      C1798   1.347       .  A
N1795      C1796   1.349       .  A
C1796      C1797   1.384       .  A
C1796      H1799   1.082       .  S
C1797      C1798   1.381       .  A
C1797      C2581   1.480       .  S
C1798      H1800   1.082       .  S
N1801      N1802   1.322       .  A
N1801      C1805   1.354       .  A
N1801     Cu1809   2.097       .  S
N1802      C1803   1.340       .  A
N1802     Cu1808   2.066       .  S
C1803      C1804   1.380       .  A
C1803      H1806   1.082       .  S
C1804      C1805   1.390       .  A
C1804      C2605   1.485       .  S
C1805      H1807   1.082       .  S
Cu1808     N1811   2.066       .  S
Cu1809     N1819   2.099       .  S
Cu1810     N1812   2.085       .  S
Cu1810     N1818   2.087       .  S
N1811      N1812   1.320       .  A
N1811      C1815   1.342       .  A
N1812      C1813   1.351       .  A
C1813      C1814   1.389       .  A
C1813      H1816   1.082       .  S
C1814      C1815   1.383       .  A
C1814      C2557   1.485       .  S
C1815      H1817   1.082       .  S
N1818      N1819   1.326       .  A
N1818      C1822   1.345       .  A
N1819      C1820   1.349       .  A
C1820      C1821   1.389       .  A
C1820      H1823   1.081       .  S
C1821      C1822   1.384       .  A
C1821      C2584   1.490       .  S
C1822      H1824   1.082       .  S
N1825      N1826   1.321       .  A
N1825      C1829   1.354       .  A
N1825     Cu1833   2.098       .  S
N1826      C1827   1.339       .  A
N1826     Cu1832   2.057       .  S
C1827      C1828   1.379       .  A
C1827      H1830   1.082       .  S
C1828      C1829   1.391       .  A
C1828      C2572   1.484       .  S
C1829      H1831   1.082       .  S
Cu1832     N1835   2.057       .  S
Cu1833     N1843   2.101       .  S
Cu1834     N1836   2.082       .  S
Cu1834     N1842   2.084       .  S
N1835      N1836   1.320       .  A
N1835      C1839   1.340       .  A
N1836      C1837   1.350       .  A
C1837      C1838   1.388       .  A
C1837      H1840   1.082       .  S
C1838      C1839   1.380       .  A
C1838      C2860   1.479       .  S
C1839      H1841   1.082       .  S
N1842      N1843   1.326       .  A
N1842      C1846   1.344       .  A
N1843      C1844   1.349       .  A
C1844      C1845   1.390       .  A
C1844      H1847   1.081       .  S
C1845      C1846   1.385       .  A
C1845      C2548   1.493       .  S
C1846      H1848   1.082       .  S
N1849      N1850   1.321       .  A
N1849      C1853   1.352       .  A
N1849     Cu1857   2.095       .  S
N1850      C1851   1.340       .  A
N1850     Cu1856   2.062       .  S
C1851      C1852   1.381       .  A
C1851      H1854   1.082       .  S
C1852      C1853   1.391       .  A
C1852      C2533   1.486       .  S
C1853      H1855   1.082       .  S
Cu1856     N1859   2.061       .  S
Cu1857     N1867   2.097       .  S
Cu1858     N1860   2.077       .  S
Cu1858     N1866   2.079       .  S
N1859      N1860   1.319       .  A
N1859      C1863   1.340       .  A
N1860      C1861   1.349       .  A
C1861      C1862   1.390       .  A
C1861      H1864   1.081       .  S
C1862      C1863   1.383       .  A
C1862      C3652   1.485       .  S
C1863      H1865   1.082       .  S
N1866      N1867   1.325       .  A
N1866      C1870   1.343       .  A
N1867      C1868   1.349       .  A
C1868      C1869   1.388       .  A
C1868      H1871   1.082       .  S
C1869      C1870   1.384       .  A
C1869      C2545   1.490       .  S
C1870      H1872   1.081       .  S
N1873      N1874   1.321       .  A
N1873      C1877   1.353       .  A
N1873     Cu1881   2.097       .  S
N1874      C1875   1.339       .  A
N1874     Cu1880   2.059       .  S
C1875      C1876   1.380       .  A
C1875      H1878   1.082       .  S
C1876      C1877   1.390       .  A
C1876      C2509   1.484       .  S
C1877      H1879   1.082       .  S
Cu1880     N1883   2.059       .  S
Cu1881     N1891   2.099       .  S
Cu1882     N1884   2.087       .  S
Cu1882     N1890   2.090       .  S
N1883      N1884   1.320       .  A
N1883      C1887   1.340       .  A
N1884      C1885   1.352       .  A
C1885      C1886   1.391       .  A
C1885      H1888   1.082       .  S
C1886      C1887   1.382       .  A
C1886      C2497   1.486       .  S
C1887      H1889   1.082       .  S
N1890      N1891   1.327       .  A
N1890      C1894   1.346       .  A
N1891      C1892   1.350       .  A
C1892      C1893   1.384       .  A
C1892      H1895   1.082       .  S
C1893      C1894   1.381       .  A
C1893      C2521   1.480       .  S
C1894      H1896   1.082       .  S
N1897      N1898   1.322       .  A
N1897      C1901   1.353       .  A
N1897     Cu1905   2.101       .  S
N1898      C1899   1.340       .  A
N1898     Cu1904   2.063       .  S
C1899      C1900   1.382       .  A
C1899      H1902   1.082       .  S
C1900      C1901   1.393       .  A
C1900      C2536   1.490       .  S
C1901      H1903   1.081       .  S
Cu1904     N1907   2.062       .  S
Cu1905     N1915   2.102       .  S
Cu1906     N1908   2.082       .  S
Cu1906     N1914   2.084       .  S
N1907      N1908   1.320       .  A
N1907      C1911   1.342       .  A
N1908      C1909   1.349       .  A
C1909      C1910   1.389       .  A
C1909      H1912   1.082       .  S
C1910      C1911   1.383       .  A
C1910      C3688   1.485       .  S
C1911      H1913   1.082       .  S
N1914      N1915   1.325       .  A
N1914      C1918   1.345       .  A
N1915      C1916   1.350       .  A
C1916      C1917   1.390       .  A
C1916      H1919   1.082       .  S
C1917      C1918   1.386       .  A
C1917      C2524   1.493       .  S
C1918      H1920   1.081       .  S
N1921      N1922   1.321       .  A
N1921      C1925   1.352       .  A
N1921     Cu1929   2.087       .  S
N1922      C1923   1.339       .  A
N1922     Cu1928   2.060       .  S
C1923      C1924   1.381       .  A
C1923      H1926   1.082       .  S
C1924      C1925   1.390       .  A
C1924      C2512   1.484       .  S
C1925      H1927   1.082       .  S
Cu1928     N1931   2.059       .  S
Cu1929     N1939   2.090       .  S
Cu1930     N1932   2.074       .  S
Cu1930     N1938   2.076       .  S
N1931      N1932   1.319       .  A
N1931      C1935   1.339       .  A
N1932      C1933   1.350       .  A
C1933      C1934   1.390       .  A
C1933      H1936   1.081       .  S
C1934      C1935   1.383       .  A
C1934      C2473   1.485       .  S
C1935      H1937   1.082       .  S
N1938      N1939   1.326       .  A
N1938      C1942   1.344       .  A
N1939      C1940   1.346       .  A
C1940      C1941   1.384       .  A
C1940      H1943   1.082       .  S
C1941      C1942   1.381       .  A
C1941      C2485   1.479       .  S
C1942      H1944   1.082       .  S
N1945      N1946   1.322       .  A
N1945      C1949   1.352       .  A
N1945     Cu1953   2.091       .  S
N1946      C1947   1.339       .  A
N1946     Cu1952   2.063       .  S
C1947      C1948   1.381       .  A
C1947      H1950   1.082       .  S
C1948      C1949   1.391       .  A
C1948      C2461   1.486       .  S
C1949      H1951   1.082       .  S
Cu1952     N1955   2.062       .  S
Cu1953     N1963   2.092       .  S
Cu1954     N1956   2.069       .  S
Cu1954     N1962   2.070       .  S
N1955      N1956   1.319       .  A
N1955      C1959   1.341       .  A
N1956      C1957   1.347       .  A
C1957      C1958   1.386       .  A
C1957      H1960   1.082       .  S
C1958      C1959   1.383       .  A
C1958      C2980   1.480       .  S
C1959      H1961   1.082       .  S
N1962      N1963   1.325       .  A
N1962      C1966   1.343       .  A
N1963      C1964   1.347       .  A
C1964      C1965   1.386       .  A
C1964      H1967   1.082       .  S
C1965      C1966   1.381       .  A
C1965      C2488   1.481       .  S
C1966      H1968   1.082       .  S
N1969      N1970   1.321       .  A
N1969      C1973   1.351       .  A
N1969     Cu1977   2.086       .  S
N1970      C1971   1.338       .  A
N1970     Cu1976   2.056       .  S
C1971      C1972   1.380       .  A
C1971      H1974   1.082       .  S
C1972      C1973   1.389       .  A
C1972      C2620   1.481       .  S
C1973      H1975   1.082       .  S
Cu1976     N1979   2.056       .  S
Cu1977     N1987   2.089       .  S
Cu1978     N1980   2.081       .  S
Cu1978     N1986   2.083       .  S
N1979      N1980   1.319       .  A
N1979      C1983   1.340       .  A
N1980      C1981   1.349       .  A
C1981      C1982   1.391       .  A
C1981      H1984   1.081       .  S
C1982      C1983   1.383       .  A
C1982      C3577   1.487       .  S
C1983      H1985   1.082       .  S
N1986      N1987   1.325       .  A
N1986      C1990   1.345       .  A
N1987      C1988   1.347       .  A
C1988      C1989   1.385       .  A
C1988      H1991   1.082       .  S
C1989      C1990   1.384       .  A
C1989      C2449   1.486       .  S
C1990      H1992   1.082       .  S
N1993      N1994   1.322       .  A
N1993      C1997   1.351       .  A
N1993     Cu2001   2.091       .  S
N1994      C1995   1.341       .  A
N1994     Cu2000   2.063       .  S
C1995      C1996   1.379       .  A
C1995      H1998   1.082       .  S
C1996      C1997   1.387       .  A
C1996      C2464   1.478       .  S
C1997      H1999   1.082       .  S
Cu2000     N2003   2.063       .  S
Cu2001     N2011   2.093       .  S
Cu2002     N2004   2.077       .  S
Cu2002     N2010   2.079       .  S
N2003      N2004   1.320       .  A
N2003      C2007   1.340       .  A
N2004      C2005   1.349       .  A
C2005      C2006   1.389       .  A
C2005      H2008   1.082       .  S
C2006      C2007   1.383       .  A
C2006      C3028   1.484       .  S
C2007      H2009   1.082       .  S
N2010      N2011   1.324       .  A
N2010      C2014   1.343       .  A
N2011      C2012   1.348       .  A
C2012      C2013   1.389       .  A
C2012      H2015   1.081       .  S
C2013      C2014   1.385       .  A
C2013      C2452   1.491       .  S
C2014      H2016   1.082       .  S
N2017      N2018   1.322       .  A
N2017      C2021   1.354       .  A
N2017     Cu2025   2.106       .  S
N2018      C2019   1.339       .  A
N2018     Cu2024   2.058       .  S
C2019      C2020   1.379       .  A
C2019      H2022   1.082       .  S
C2020      C2021   1.392       .  A
C2020      C2425   1.485       .  S
C2021      H2023   1.082       .  S
Cu2024     N2027   2.057       .  S
Cu2025     N2035   2.108       .  S
Cu2026     N2028   2.077       .  S
Cu2026     N2034   2.080       .  S
N2027      N2028   1.319       .  A
N2027      C2031   1.340       .  A
N2028      C2029   1.349       .  A
C2029      C2030   1.389       .  A
C2029      H2032   1.082       .  S
C2030      C2031   1.383       .  A
C2030      C2764   1.483       .  S
C2031      H2033   1.082       .  S
N2034      N2035   1.327       .  A
N2034      C2038   1.344       .  A
N2035      C2036   1.351       .  A
C2036      C2037   1.388       .  A
C2036      H2039   1.082       .  S
C2037      C2038   1.379       .  A
C2037      C2437   1.484       .  S
C2038      H2040   1.082       .  S
N2041      N2042   1.320       .  A
N2041      C2045   1.351       .  A
N2041     Cu2049   2.089       .  S
N2042      C2043   1.341       .  A
N2042     Cu2048   2.062       .  S
C2043      C2044   1.382       .  A
C2043      H2046   1.082       .  S
C2044      C2045   1.390       .  A
C2044      C2413   1.485       .  S
C2045      H2047   1.082       .  S
Cu2048     N2051   2.062       .  S
Cu2049     N2059   2.091       .  S
Cu2050     N2052   2.099       .  S
Cu2050     N2058   2.101       .  S
N2051      N2052   1.321       .  A
N2051      C2055   1.340       .  A
N2052      C2053   1.353       .  A
C2053      C2054   1.392       .  A
C2053      H2056   1.082       .  S
C2054      C2055   1.382       .  A
C2054      C2560   1.489       .  S
C2055      H2057   1.082       .  S
N2058      N2059   1.326       .  A
N2058      C2062   1.349       .  A
N2059      C2060   1.347       .  A
C2060      C2061   1.385       .  A
C2060      H2063   1.082       .  S
C2061      C2062   1.387       .  A
C2061      C2440   1.490       .  S
C2062      H2064   1.082       .  S
N2065      N2066   1.321       .  A
N2065      C2069   1.353       .  A
N2065     Cu2073   2.096       .  S
N2066      C2067   1.340       .  A
N2066     Cu2072   2.061       .  S
C2067      C2068   1.380       .  A
C2067      H2070   1.082       .  S
C2068      C2069   1.391       .  A
C2068      C2389   1.485       .  S
C2069      H2071   1.082       .  S
Cu2072     N2075   2.061       .  S
Cu2073     N2083   2.098       .  S
Cu2074     N2076   2.093       .  S
Cu2074     N2082   2.095       .  S
N2075      N2076   1.321       .  A
N2075      C2079   1.341       .  A
N2076      C2077   1.352       .  A
C2077      C2078   1.391       .  A
C2077      H2080   1.082       .  S
C2078      C2079   1.381       .  A
C2078      C3193   1.484       .  S
C2079      H2081   1.082       .  S
N2082      N2083   1.327       .  A
N2082      C2086   1.347       .  A
N2083      C2084   1.349       .  A
C2084      C2085   1.384       .  A
C2084      H2087   1.082       .  S
C2085      C2086   1.384       .  A
C2085      C2401   1.485       .  S
C2086      H2088   1.082       .  S
N2089      N2090   1.321       .  A
N2089      C2093   1.353       .  A
N2089     Cu2097   2.098       .  S
N2090      C2091   1.340       .  A
N2090     Cu2096   2.056       .  S
C2091      C2092   1.380       .  A
C2091      H2094   1.082       .  S
C2092      C2093   1.392       .  A
C2092      C2416   1.485       .  S
C2093      H2095   1.082       .  S
Cu2096     N2099   2.056       .  S
Cu2097     N2107   2.101       .  S
Cu2098     N2100   2.093       .  S
Cu2098     N2106   2.096       .  S
N2099      N2100   1.320       .  A
N2099      C2103   1.339       .  A
N2100      C2101   1.352       .  A
C2101      C2102   1.393       .  A
C2101      H2104   1.081       .  S
C2102      C2103   1.382       .  A
C2102      C2596   1.489       .  S
C2103      H2105   1.082       .  S
N2106      N2107   1.327       .  A
N2106      C2110   1.347       .  A
N2107      C2108   1.349       .  A
C2108      C2109   1.386       .  A
C2108      H2111   1.082       .  S
C2109      C2110   1.385       .  A
C2109      C2404   1.489       .  S
C2110      H2112   1.082       .  S
N2113      N2114   1.321       .  A
N2113      C2117   1.354       .  A
N2113     Cu2121   2.104       .  S
N2114      C2115   1.339       .  A
N2114     Cu2120   2.060       .  S
C2115      C2116   1.381       .  A
C2115      H2118   1.082       .  S
C2116      C2117   1.393       .  A
C2116      C2392   1.489       .  S
C2117      H2119   1.082       .  S
Cu2120     N2123   2.060       .  S
Cu2121     N2131   2.106       .  S
Cu2122     N2124   2.085       .  S
Cu2122     N2130   2.087       .  S
N2123      N2124   1.319       .  A
N2123      C2127   1.340       .  A
N2124      C2125   1.351       .  A
C2125      C2126   1.390       .  A
C2125      H2128   1.082       .  S
C2126      C2127   1.384       .  A
C2126      C3100   1.486       .  S
C2127      H2129   1.082       .  S
N2130      N2131   1.325       .  A
N2130      C2134   1.344       .  A
N2131      C2132   1.350       .  A
C2132      C2133   1.392       .  A
C2132      H2135   1.081       .  S
C2133      C2134   1.387       .  A
C2133      C2377   1.498       .  S
C2134      H2136   1.082       .  S
N2137      N2138   1.321       .  A
N2137      C2141   1.355       .  A
N2137     Cu2145   2.108       .  S
N2138      C2139   1.339       .  A
N2138     Cu2144   2.057       .  S
C2139      C2140   1.381       .  A
C2139      H2142   1.082       .  S
C2140      C2141   1.396       .  A
C2140      C2365   1.493       .  S
C2141      H2143   1.081       .  S
Cu2144     N2147   2.057       .  S
Cu2145     N2155   2.110       .  S
Cu2146     N2148   2.081       .  S
Cu2146     N2154   2.085       .  S
N2147      N2148   1.319       .  A
N2147      C2151   1.340       .  A
N2148      C2149   1.350       .  A
C2149      C2150   1.389       .  A
C2149      H2152   1.082       .  S
C2150      C2151   1.382       .  A
C2150      C2692   1.483       .  S
C2151      H2153   1.082       .  S
N2154      N2155   1.326       .  A
N2154      C2158   1.345       .  A
N2155      C2156   1.351       .  A
C2156      C2157   1.389       .  A
C2156      H2159   1.082       .  S
C2157      C2158   1.384       .  A
C2157      C2380   1.493       .  S
C2158      H2160   1.082       .  S
N2161      N2162   1.322       .  A
N2161      C2165   1.353       .  A
N2161     Cu2169   2.098       .  S
N2162      C2163   1.339       .  A
N2162     Cu2168   2.057       .  S
C2163      C2164   1.379       .  A
C2163      H2166   1.082       .  S
C2164      C2165   1.392       .  A
C2164      C2341   1.485       .  S
C2165      H2167   1.082       .  S
Cu2168     N2171   2.057       .  S
Cu2169     N2179   2.100       .  S
Cu2170     N2172   2.074       .  S
Cu2170     N2178   2.077       .  S
N2171      N2172   1.319       .  A
N2171      C2175   1.340       .  A
N2172      C2173   1.349       .  A
C2173      C2174   1.387       .  A
C2173      H2176   1.082       .  S
C2174      C2175   1.382       .  A
C2174      C2476   1.480       .  S
C2175      H2177   1.082       .  S
N2178      N2179   1.326       .  A
N2178      C2182   1.343       .  A
N2179      C2180   1.350       .  A
C2180      C2181   1.386       .  A
C2180      H2183   1.082       .  S
C2181      C2182   1.381       .  A
C2181      C2353   1.484       .  S
C2182      H2184   1.082       .  S
N2185      N2186   1.321       .  A
N2185      C2189   1.354       .  A
N2185     Cu2193   2.100       .  S
N2186      C2187   1.340       .  A
N2186     Cu2192   2.063       .  S
C2187      C2188   1.381       .  A
C2187      H2190   1.082       .  S
C2188      C2189   1.391       .  A
C2188      C2368   1.487       .  S
C2189      H2191   1.082       .  S
Cu2192     N2195   2.062       .  S
Cu2193     N2203   2.102       .  S
Cu2194     N2196   2.079       .  S
Cu2194     N2202   2.082       .  S
N2195      N2196   1.320       .  A
N2195      C2199   1.341       .  A
N2196      C2197   1.349       .  A
C2197      C2198   1.388       .  A
C2197      H2200   1.082       .  S
C2198      C2199   1.382       .  A
C2198      C2716   1.482       .  S
C2199      H2201   1.082       .  S
N2202      N2203   1.326       .  A
N2202      C2206   1.346       .  A
N2203      C2204   1.348       .  A
C2204      C2205   1.386       .  A
C2204      H2207   1.082       .  S
C2205      C2206   1.382       .  A
C2205      C2356   1.485       .  S
C2206      H2208   1.082       .  S
N2209      N2210   1.321       .  A
N2209      C2213   1.353       .  A
N2209     Cu2217   2.092       .  S
N2210      C2211   1.337       .  A
N2210     Cu2216   2.055       .  S
C2211      C2212   1.380       .  A
C2211      H2214   1.082       .  S
C2212      C2213   1.393       .  A
C2212      C2317   1.486       .  S
C2213      H2215   1.082       .  S
Cu2216     N2219   2.056       .  S
Cu2217     N2227   2.094       .  S
Cu2218     N2220   2.080       .  S
Cu2218     N2226   2.082       .  S
N2219      N2220   1.319       .  A
N2219      C2223   1.341       .  A
N2220      C2221   1.349       .  A
C2221      C2222   1.391       .  A
C2221      H2224   1.081       .  S
C2222      C2223   1.383       .  A
C2222      C3124   1.486       .  S
C2223      H2225   1.082       .  S
N2226      N2227   1.325       .  A
N2226      C2230   1.344       .  A
N2227      C2228   1.348       .  A
C2228      C2229   1.388       .  A
C2228      H2231   1.082       .  S
C2229      C2230   1.385       .  A
C2229      C2332   1.491       .  S
C2230      H2232   1.081       .  S
N2233      N2234   1.320       .  A
N2233      C2237   1.352       .  A
N2233     Cu2241   2.087       .  S
N2234      C2235   1.339       .  A
N2234     Cu2240   2.059       .  S
C2235      C2236   1.381       .  A
C2235      H2238   1.082       .  S
C2236      C2237   1.389       .  A
C2236      C2344   1.483       .  S
C2237      H2239   1.082       .  S
Cu2240     N2243   2.059       .  S
Cu2241     N2251   2.089       .  S
Cu2242     N2244   2.085       .  S
Cu2242     N2250   2.088       .  S
N2243      N2244   1.319       .  A
N2243      C2247   1.339       .  A
N2244      C2245   1.351       .  A
C2245      C2246   1.392       .  A
C2245      H2248   1.082       .  S
C2246      C2247   1.384       .  A
C2246      C2500   1.489       .  S
C2247      H2249   1.081       .  S
N2250      N2251   1.326       .  A
N2250      C2254   1.345       .  A
N2251      C2252   1.347       .  A
C2252      C2253   1.387       .  A
C2252      H2255   1.081       .  S
C2253      C2254   1.385       .  A
C2253      C2329   1.489       .  S
C2254      H2256   1.082       .  S
N2257      N2258   1.321       .  A
N2257      C2261   1.351       .  A
N2257     Cu2265   2.089       .  S
N2258      C2259   1.342       .  A
N2258     Cu2264   2.072       .  S
C2259      C2260   1.385       .  A
C2259      H2262   1.082       .  S
C2260      C2261   1.392       .  A
C2260      C2428   1.492       .  S
C2261      H2263   1.081       .  S
Cu2264     N2267   2.072       .  S
Cu2265     N2275   2.090       .  S
Cu2266     N2268   2.083       .  S
Cu2266     N2274   2.085       .  S
N2267      N2268   1.320       .  A
N2267      C2271   1.342       .  A
N2268      C2269   1.350       .  A
C2269      C2270   1.389       .  A
C2269      H2272   1.082       .  S
C2270      C2271   1.386       .  A
C2270      C2668   1.489       .  S
C2271      H2273   1.082       .  S
N2274      N2275   1.325       .  A
N2274      C2278   1.345       .  A
N2275      C2276   1.348       .  A
C2276      C2277   1.385       .  A
C2276      H2279   1.082       .  S
C2277      C2278   1.383       .  A
C2277      C2305   1.484       .  S
C2278      H2280   1.082       .  S
N2281      N2282   1.322       .  A
N2281      C2285   1.349       .  A
N2281     Cu2289   2.082       .  S
N2282      C2283   1.342       .  A
N2282     Cu2288   2.070       .  S
C2283      C2284   1.381       .  A
C2283      H2286   1.082       .  S
C2284      C2285   1.385       .  A
C2284      C2320   1.478       .  S
C2285      H2287   1.082       .  S
Cu2288     N2291   2.069       .  S
Cu2289     N2299   2.083       .  S
Cu2290     N2292   2.083       .  S
Cu2290     N2298   2.084       .  S
N2291      N2292   1.321       .  A
N2291      C2295   1.342       .  A
N2292      C2293   1.349       .  A
C2293      C2294   1.388       .  A
C2293      H2296   1.082       .  S
C2294      C2295   1.382       .  A
C2294      C3160   1.483       .  S
C2295      H2297   1.082       .  S
N2298      N2299   1.325       .  A
N2298      C2302   1.346       .  A
N2299      C2300   1.347       .  A
C2300      C2301   1.384       .  A
C2300      H2303   1.082       .  S
C2301      C2302   1.383       .  A
C2301      C2308   1.482       .  S
C2302      H2304   1.082       .  S
C2305      C2306   1.404       .  A
C2305      C2310   1.412       .  A
C2306      C2307   1.402       .  A
C2306      H2311   1.085       .  S
C2307      C2308   1.412       .  A
C2307      C2314   1.444       .  S
C2308      C2309   1.404       .  A
C2309      C2310   1.403       .  A
C2309      H2312   1.085       .  S
C2310      C2313   1.443       .  S
C2313      N2315   1.157       .  T
C2314      N2316   1.157       .  T
C2317      C2318   1.405       .  A
C2317      C2322   1.414       .  A
C2318      C2319   1.397       .  A
C2318      H2323   1.085       .  S
C2319      C2320   1.408       .  A
C2319      C2326   1.444       .  S
C2320      C2321   1.404       .  A
C2321      C2322   1.407       .  A
C2321      H2324   1.085       .  S
C2322      C2325   1.443       .  S
C2325      N2327   1.157       .  T
C2326      N2328   1.157       .  T
C2329      C2330   1.404       .  A
C2329      C2334   1.414       .  A
C2330      C2331   1.400       .  A
C2330      H2335   1.084       .  S
C2331      C2332   1.416       .  A
C2331      C2338   1.444       .  S
C2332      C2333   1.406       .  A
C2333      C2334   1.404       .  A
C2333      H2336   1.084       .  S
C2334      C2337   1.443       .  S
C2337      N2339   1.157       .  T
C2338      N2340   1.157       .  T
C2341      C2342   1.403       .  A
C2341      C2346   1.413       .  A
C2342      C2343   1.397       .  A
C2342      H2347   1.085       .  S
C2343      C2344   1.412       .  A
C2343      C2350   1.445       .  S
C2344      C2345   1.405       .  A
C2345      C2346   1.408       .  A
C2345      H2348   1.084       .  S
C2346      C2349   1.443       .  S
C2349      N2351   1.157       .  T
C2350      N2352   1.157       .  T
C2353      C2354   1.404       .  A
C2353      C2358   1.413       .  A
C2354      C2355   1.405       .  A
C2354      H2359   1.085       .  S
C2355      C2356   1.414       .  A
C2355      C2362   1.444       .  S
C2356      C2357   1.402       .  A
C2357      C2358   1.401       .  A
C2357      H2360   1.085       .  S
C2358      C2361   1.444       .  S
C2361      N2363   1.157       .  T
C2362      N2364   1.157       .  T
C2365      C2366   1.405       .  A
C2365      C2370   1.415       .  A
C2366      C2367   1.398       .  A
C2366      H2371   1.085       .  S
C2367      C2368   1.411       .  A
C2367      C2374   1.445       .  S
C2368      C2369   1.406       .  A
C2369      C2370   1.411       .  A
C2369      H2372   1.084       .  S
C2370      C2373   1.442       .  S
C2373      N2375   1.157       .  T
C2374      N2376   1.157       .  T
C2377      C2378   1.407       .  A
C2377      C2382   1.417       .  A
C2378      C2379   1.402       .  A
C2378      H2383   1.084       .  S
C2379      C2380   1.414       .  A
C2379      C2386   1.444       .  S
C2380      C2381   1.405       .  A
C2381      C2382   1.408       .  A
C2381      H2384   1.085       .  S
C2382      C2385   1.443       .  S
C2385      N2387   1.157       .  T
C2386      N2388   1.157       .  T
C2389      C2390   1.402       .  A
C2389      C2394   1.413       .  A
C2390      C2391   1.397       .  A
C2390      H2395   1.085       .  S
C2391      C2392   1.414       .  A
C2391      C2398   1.445       .  S
C2392      C2393   1.407       .  A
C2393      C2394   1.410       .  A
C2393      H2396   1.084       .  S
C2394      C2397   1.443       .  S
C2397      N2399   1.157       .  T
C2398      N2400   1.157       .  T
C2401      C2402   1.403       .  A
C2401      C2406   1.411       .  A
C2402      C2403   1.405       .  A
C2402      H2407   1.085       .  S
C2403      C2404   1.414       .  A
C2403      C2410   1.444       .  S
C2404      C2405   1.405       .  A
C2405      C2406   1.404       .  A
C2405      H2408   1.084       .  S
C2406      C2409   1.444       .  S
C2409      N2411   1.157       .  T
C2410      N2412   1.157       .  T
C2413      C2414   1.403       .  A
C2413      C2418   1.414       .  A
C2414      C2415   1.399       .  A
C2414      H2419   1.085       .  S
C2415      C2416   1.413       .  A
C2415      C2422   1.445       .  S
C2416      C2417   1.405       .  A
C2417      C2418   1.408       .  A
C2417      H2420   1.084       .  S
C2418      C2421   1.443       .  S
C2421      N2423   1.157       .  T
C2422      N2424   1.157       .  T
C2425      C2426   1.404       .  A
C2425      C2430   1.411       .  A
C2426      C2427   1.409       .  A
C2426      H2431   1.085       .  S
C2427      C2428   1.417       .  A
C2427      C2434   1.443       .  S
C2428      C2429   1.405       .  A
C2429      C2430   1.398       .  A
C2429      H2432   1.085       .  S
C2430      C2433   1.445       .  S
C2433      N2435   1.157       .  T
C2434      N2436   1.157       .  T
C2437      C2438   1.403       .  A
C2437      C2442   1.411       .  A
C2438      C2439   1.403       .  A
C2438      H2443   1.085       .  S
C2439      C2440   1.415       .  A
C2439      C2446   1.444       .  S
C2440      C2441   1.406       .  A
C2441      C2442   1.405       .  A
C2441      H2444   1.084       .  S
C2442      C2445   1.443       .  S
C2445      N2447   1.157       .  T
C2446      N2448   1.157       .  T
C2449      C2450   1.405       .  A
C2449      C2454   1.412       .  A
C2450      C2451   1.404       .  A
C2450      H2455   1.085       .  S
C2451      C2452   1.415       .  A
C2451      C2458   1.443       .  S
C2452      C2453   1.406       .  A
C2453      C2454   1.400       .  A
C2453      H2456   1.084       .  S
C2454      C2457   1.444       .  S
C2457      N2459   1.157       .  T
C2458      N2460   1.157       .  T
C2461      C2462   1.405       .  A
C2461      C2466   1.414       .  A
C2462      C2463   1.397       .  A
C2462      H2467   1.085       .  S
C2463      C2464   1.409       .  A
C2463      C2470   1.444       .  S
C2464      C2465   1.404       .  A
C2465      C2466   1.407       .  A
C2465      H2468   1.085       .  S
C2466      C2469   1.443       .  S
C2469      N2471   1.157       .  T
C2470      N2472   1.157       .  T
C2473      C2474   1.404       .  A
C2473      C2478   1.414       .  A
C2474      C2475   1.394       .  A
C2474      H2479   1.085       .  S
C2475      C2476   1.411       .  A
C2475      C2482   1.445       .  S
C2476      C2477   1.405       .  A
C2477      C2478   1.406       .  A
C2477      H2480   1.085       .  S
C2478      C2481   1.443       .  S
C2481      N2483   1.157       .  T
C2482      N2484   1.157       .  T
C2485      C2486   1.402       .  A
C2485      C2490   1.412       .  A
C2486      C2487   1.401       .  A
C2486      H2491   1.085       .  S
C2487      C2488   1.414       .  A
C2487      C2494   1.444       .  S
C2488      C2489   1.403       .  A
C2489      C2490   1.401       .  A
C2489      H2492   1.085       .  S
C2490      C2493   1.444       .  S
C2493      N2495   1.157       .  T
C2494      N2496   1.157       .  T
C2497      C2498   1.403       .  A
C2497      C2502   1.413       .  A
C2498      C2499   1.396       .  A
C2498      H2503   1.085       .  S
C2499      C2500   1.415       .  A
C2499      C2506   1.444       .  S
C2500      C2501   1.407       .  A
C2501      C2502   1.408       .  A
C2501      H2504   1.084       .  S
C2502      C2505   1.443       .  S
C2505      N2507   1.157       .  T
C2506      N2508   1.157       .  T
C2509      C2510   1.406       .  A
C2509      C2514   1.411       .  A
C2510      C2511   1.409       .  A
C2510      H2515   1.084       .  S
C2511      C2512   1.413       .  A
C2511      C2518   1.443       .  S
C2512      C2513   1.402       .  A
C2513      C2514   1.395       .  A
C2513      H2516   1.085       .  S
C2514      C2517   1.445       .  S
C2517      N2519   1.157       .  T
C2518      N2520   1.157       .  T
C2521      C2522   1.401       .  A
C2521      C2526   1.409       .  A
C2522      C2523   1.404       .  A
C2522      H2527   1.085       .  S
C2523      C2524   1.417       .  A
C2523      C2530   1.443       .  S
C2524      C2525   1.407       .  A
C2525      C2526   1.405       .  A
C2525      H2528   1.084       .  S
C2526      C2529   1.443       .  S
C2529      N2531   1.157       .  T
C2530      N2532   1.157       .  T
C2533      C2534   1.405       .  A
C2533      C2538   1.412       .  A
C2534      C2535   1.409       .  A
C2534      H2539   1.084       .  S
C2535      C2536   1.415       .  A
C2535      C2542   1.442       .  S
C2536      C2537   1.404       .  A
C2537      C2538   1.398       .  A
C2537      H2540   1.085       .  S
C2538      C2541   1.445       .  S
C2541      N2543   1.157       .  T
C2542      N2544   1.157       .  T
C2545      C2546   1.405       .  A
C2545      C2550   1.415       .  A
C2546      C2547   1.405       .  A
C2546      H2551   1.085       .  S
C2547      C2548   1.416       .  A
C2547      C2554   1.443       .  S
C2548      C2549   1.406       .  A
C2549      C2550   1.400       .  A
C2549      H2552   1.084       .  S
C2550      C2553   1.444       .  S
C2553      N2555   1.157       .  T
C2554      N2556   1.157       .  T
C2557      C2558   1.402       .  A
C2557      C2562   1.413       .  A
C2558      C2559   1.398   1_545  A
C2558      H2563   1.085       .  S
C2559      C2560   1.415       .  A
C2559      C2566   1.444       .  S
C2560      C2561   1.407       .  A
C2561      C2562   1.409   1_565  A
C2561      H2564   1.084       .  S
C2562      C2565   1.443       .  S
C2565      N2567   1.157       .  T
C2566      N2568   1.157       .  T
C2569      C2570   1.403       .  A
C2569      C2574   1.414       .  A
C2570      C2571   1.397       .  A
C2570      H2575   1.085       .  S
C2571      C2572   1.412       .  A
C2571      C2578   1.445       .  S
C2572      C2573   1.405       .  A
C2573      C2574   1.409       .  A
C2573      H2576   1.084       .  S
C2574      C2577   1.443       .  S
C2577      N2579   1.157       .  T
C2578      N2580   1.157       .  T
C2581      C2582   1.402       .  A
C2581      C2586   1.409       .  A
C2582      C2583   1.404       .  A
C2582      H2587   1.085       .  S
C2583      C2584   1.415       .  A
C2583      C2590   1.443       .  S
C2584      C2585   1.407       .  A
C2585      C2586   1.403       .  A
C2585      H2588   1.084       .  S
C2586      C2589   1.444       .  S
C2589      N2591   1.157       .  T
C2590      N2592   1.157       .  T
C2593      C2594   1.406       .  A
C2593      C2598   1.412       .  A
C2594      C2595   1.408   1_545  A
C2594      H2599   1.085       .  S
C2595      C2596   1.414       .  A
C2595      C2602   1.443       .  S
C2596      C2597   1.405       .  A
C2597      C2598   1.398   1_565  A
C2597      H2600   1.085       .  S
C2598      C2601   1.445       .  S
C2601      N2603   1.157       .  T
C2602      N2604   1.157       .  T
C2605      C2606   1.406       .  A
C2605      C2610   1.412       .  A
C2606      C2607   1.410       .  A
C2606      H2611   1.084       .  S
C2607      C2608   1.413       .  A
C2607      C2614   1.443       .  S
C2608      C2609   1.401       .  A
C2609      C2610   1.397       .  A
C2609      H2612   1.085       .  S
C2610      C2613   1.444       .  S
C2613      N2615   1.157       .  T
C2614      N2616   1.157       .  T
C2617      C2618   1.403       .  A
C2617      C2622   1.414       .  A
C2618      C2619   1.396       .  A
C2618      H2623   1.085       .  S
C2619      C2620   1.411       .  A
C2619      C2626   1.445       .  S
C2620      C2621   1.405       .  A
C2621      C2622   1.407       .  A
C2621      H2624   1.084       .  S
C2622      C2625   1.443       .  S
C2625      N2627   1.157       .  T
C2626      N2628   1.157       .  T
C2629      C2630   1.406       .  A
C2629      C2634   1.413       .  A
C2630      C2631   1.405       .  A
C2630      H2635   1.084       .  S
C2631      C2632   1.416       .  A
C2631      C2638   1.443       .  S
C2632      C2633   1.406       .  A
C2633      C2634   1.402       .  A
C2633      H2636   1.084       .  S
C2634      C2637   1.444       .  S
C2637      N2639   1.157       .  T
C2638      N2640   1.157       .  T
C2641      C2642   1.406       .  A
C2641      C2646   1.414       .  A
C2642      C2643   1.401       .  A
C2642      H2647   1.084       .  S
C2643      C2644   1.414       .  A
C2643      C2650   1.444       .  S
C2644      C2645   1.406       .  A
C2645      C2646   1.405       .  A
C2645      H2648   1.084       .  S
C2646      C2649   1.443       .  S
C2649      N2651   1.157       .  T
C2650      N2652   1.157       .  T
C2653      C2654   1.405       .  A
C2653      C2658   1.412       .  A
C2654      C2655   1.408       .  A
C2654      H2659   1.084       .  S
C2655      C2656   1.414       .  A
C2655      C2662   1.443       .  S
C2656      C2657   1.403       .  A
C2657      C2658   1.398       .  A
C2657      H2660   1.085       .  S
C2658      C2661   1.445       .  S
C2661      N2663   1.157       .  T
C2662      N2664   1.157       .  T
C2665      C2666   1.402       .  A
C2665      C2670   1.412       .  A
C2666      C2667   1.398       .  A
C2666      H2671   1.085       .  S
C2667      C2668   1.413       .  A
C2667      C2674   1.444       .  S
C2668      C2669   1.407       .  A
C2669      C2670   1.408       .  A
C2669      H2672   1.084       .  S
C2670      C2673   1.443       .  S
C2673      N2675   1.157       .  T
C2674      N2676   1.157       .  T
C2677      C2678   1.404       .  A
C2677      C2682   1.413       .  A
C2678      C2679   1.403       .  A
C2678      H2683   1.085       .  S
C2679      C2680   1.412       .  A
C2679      C2686   1.444       .  S
C2680      C2681   1.403       .  A
C2681      C2682   1.403       .  A
C2681      H2684   1.085       .  S
C2682      C2685   1.443       .  S
C2685      N2687   1.157       .  T
C2686      N2688   1.157       .  T
C2689      C2690   1.404   1_655  A
C2689      C2694   1.414   1_655  A
C2690      C2691   1.397       .  A
C2690      H2695   1.085   1_455  S
C2691      C2692   1.412       .  A
C2691      C2698   1.445       .  S
C2692      C2693   1.405       .  A
C2693      C2694   1.406       .  A
C2693      H2696   1.085       .  S
C2694      C2697   1.443   1_455  S
C2697      N2699   1.157       .  T
C2698      N2700   1.157       .  T
C2701      C2702   1.402       .  A
C2701      C2706   1.410       .  A
C2702      C2703   1.403       .  A
C2702      H2707   1.085       .  S
C2703      C2704   1.415       .  A
C2703      C2710   1.444       .  S
C2704      C2705   1.406       .  A
C2705      C2706   1.404       .  A
C2705      H2708   1.084       .  S
C2706      C2709   1.443       .  S
C2709      N2711   1.157       .  T
C2710      N2712   1.157       .  T
C2713      C2714   1.403   1_655  A
C2713      C2718   1.413   1_655  A
C2714      C2715   1.396       .  A
C2714      H2719   1.085   1_455  S
C2715      C2716   1.412       .  A
C2715      C2722   1.445       .  S
C2716      C2717   1.405       .  A
C2717      C2718   1.406       .  A
C2717      H2720   1.084       .  S
C2718      C2721   1.443   1_455  S
C2721      N2723   1.157       .  T
C2722      N2724   1.157       .  T
C2725      C2726   1.405       .  A
C2725      C2730   1.412       .  A
C2726      C2727   1.407       .  A
C2726      H2731   1.084       .  S
C2727      C2728   1.413       .  A
C2727      C2734   1.443       .  S
C2728      C2729   1.403       .  A
C2729      C2730   1.396       .  A
C2729      H2732   1.085       .  S
C2730      C2733   1.445       .  S
C2733      N2735   1.157       .  T
C2734      N2736   1.157       .  T
C2737      C2738   1.404       .  A
C2737      C2742   1.415       .  A
C2738      C2739   1.398       .  A
C2738      H2743   1.085       .  S
C2739      C2740   1.414       .  A
C2739      C2746   1.445       .  S
C2740      C2741   1.406       .  A
C2741      C2742   1.411       .  A
C2741      H2744   1.084       .  S
C2742      C2745   1.442       .  S
C2745      N2747   1.157       .  T
C2746      N2748   1.157       .  T
C2749      C2750   1.406       .  A
C2749      C2754   1.412       .  A
C2750      C2751   1.405       .  A
C2750      H2755   1.085       .  S
C2751      C2752   1.412       .  A
C2751      C2758   1.444       .  S
C2752      C2753   1.404       .  A
C2753      C2754   1.401       .  A
C2753      H2756   1.085       .  S
C2754      C2757   1.444       .  S
C2757      N2759   1.157       .  T
C2758      N2760   1.157       .  T
C2761      C2762   1.404       .  A
C2761      C2766   1.411       .  A
C2762      C2763   1.406       .  A
C2762      H2767   1.085       .  S
C2763      C2764   1.414       .  A
C2763      C2770   1.443       .  S
C2764      C2765   1.403       .  A
C2765      C2766   1.396       .  A
C2765      H2768   1.085       .  S
C2766      C2769   1.445       .  S
C2769      N2771   1.157       .  T
C2770      N2772   1.157       .  T
C2773      C2774   1.405       .  A
C2773      C2778   1.412       .  A
C2774      C2775   1.407       .  A
C2774      H2779   1.084       .  S
C2775      C2776   1.413       .  A
C2775      C2782   1.443       .  S
C2776      C2777   1.403       .  A
C2777      C2778   1.397       .  A
C2777      H2780   1.085       .  S
C2778      C2781   1.445       .  S
C2781      N2783   1.157       .  T
C2782      N2784   1.157       .  T
C2785      C2786   1.403       .  A
C2785      C2790   1.412       .  A
C2786      C2787   1.402       .  A
C2786      H2791   1.085       .  S
C2787      C2788   1.413       .  A
C2787      C2794   1.444       .  S
C2788      C2789   1.403       .  A
C2789      C2790   1.401       .  A
C2789      H2792   1.085       .  S
C2790      C2793   1.444       .  S
C2793      N2795   1.157       .  T
C2794      N2796   1.157       .  T
C2797      C2798   1.406       .  A
C2797      C2802   1.411       .  A
C2798      C2799   1.410       .  A
C2798      H2803   1.084       .  S
C2799      C2800   1.413       .  A
C2799      C2806   1.443       .  S
C2800      C2801   1.402       .  A
C2801      C2802   1.396       .  A
C2801      H2804   1.085       .  S
C2802      C2805   1.445       .  S
C2805      N2807   1.157       .  T
C2806      N2808   1.157       .  T
C2809      C2810   1.406       .  A
C2809      C2814   1.412       .  A
C2810      C2811   1.408       .  A
C2810      H2815   1.084       .  S
C2811      C2812   1.414       .  A
C2811      C2818   1.443       .  S
C2812      C2813   1.403       .  A
C2813      C2814   1.398       .  A
C2813      H2816   1.085       .  S
C2814      C2817   1.444       .  S
C2817      N2819   1.157       .  T
C2818      N2820   1.157       .  T
C2821      C2822   1.405       .  A
C2821      C2826   1.413       .  A
C2822      C2823   1.404       .  A
C2822      H2827   1.085       .  S
C2823      C2824   1.412       .  A
C2823      C2830   1.444       .  S
C2824      C2825   1.404       .  A
C2825      C2826   1.402       .  A
C2825      H2828   1.085       .  S
C2826      C2829   1.444       .  S
C2829      N2831   1.157       .  T
C2830      N2832   1.157       .  T
C2833      C2834   1.406       .  A
C2833      C2838   1.412       .  A
C2834      C2835   1.407       .  A
C2834      H2839   1.084       .  S
C2835      C2836   1.414       .  A
C2835      C2842   1.443       .  S
C2836      C2837   1.402       .  A
C2837      C2838   1.396       .  A
C2837      H2840   1.085       .  S
C2838      C2841   1.445       .  S
C2841      N2843   1.157       .  T
C2842      N2844   1.157       .  T
C2845      C2846   1.405       .  A
C2845      C2850   1.414       .  A
C2846      C2847   1.401       .  A
C2846      H2851   1.084       .  S
C2847      C2848   1.410       .  A
C2847      C2854   1.444       .  S
C2848      C2849   1.403       .  A
C2849      C2850   1.403       .  A
C2849      H2852   1.085       .  S
C2850      C2853   1.444       .  S
C2853      N2855   1.157       .  T
C2854      N2856   1.157       .  T
C2857      C2858   1.405       .  A
C2857      C2862   1.416       .  A
C2858      C2859   1.397       .  A
C2858      H2863   1.085       .  S
C2859      C2860   1.409       .  A
C2859      C2866   1.445       .  S
C2860      C2861   1.404       .  A
C2861      C2862   1.407       .  A
C2861      H2864   1.085       .  S
C2862      C2865   1.443       .  S
C2865      N2867   1.157       .  T
C2866      N2868   1.157       .  T
C2869      C2870   1.405       .  A
C2869      C2874   1.410       .  A
C2870      C2871   1.408       .  A
C2870      H2875   1.085       .  S
C2871      C2872   1.415       .  A
C2871      C2878   1.443       .  S
C2872      C2873   1.403       .  A
C2873      C2874   1.395       .  A
C2873      H2876   1.085       .  S
C2874      C2877   1.445       .  S
C2877      N2879   1.157       .  T
C2878      N2880   1.157       .  T
C2881      C2882   1.405       .  A
C2881      C2886   1.413       .  A
C2882      C2883   1.407       .  A
C2882      H2887   1.084       .  S
C2883      C2884   1.419       .  A
C2883      C2890   1.442       .  S
C2884      C2885   1.408       .  A
C2885      C2886   1.401       .  A
C2885      H2888   1.083       .  S
C2886      C2889   1.444       .  S
C2889      N2891   1.157       .  T
C2890      N2892   1.157       .  T
C2893      C2894   1.405       .  A
C2893      C2898   1.412       .  A
C2894      C2895   1.408   1_545  A
C2894      H2899   1.084       .  S
C2895      C2896   1.414       .  A
C2895      C2902   1.443       .  S
C2896      C2897   1.403       .  A
C2897      C2898   1.395   1_565  A
C2897      H2900   1.085       .  S
C2898      C2901   1.445       .  S
C2901      N2903   1.157       .  T
C2902      N2904   1.157       .  T
C2905      C2906   1.401       .  A
C2905      C2910   1.410       .  A
C2906      C2907   1.400       .  A
C2906      H2911   1.085       .  S
C2907      C2908   1.417       .  A
C2907      C2914   1.444       .  S
C2908      C2909   1.408       .  A
C2909      C2910   1.406       .  A
C2909      H2912   1.084       .  S
C2910      C2913   1.443       .  S
C2913      N2915   1.157       .  T
C2914      N2916   1.157       .  T
C2917      C2918   1.406       .  A
C2917      C2922   1.412       .  A
C2918      C2919   1.410       .  A
C2918      H2923   1.084       .  S
C2919      C2920   1.414       .  A
C2919      C2926   1.443       .  S
C2920      C2921   1.404       .  A
C2921      C2922   1.399       .  A
C2921      H2924   1.085       .  S
C2922      C2925   1.445       .  S
C2925      N2927   1.157       .  T
C2926      N2928   1.157       .  T
C2929      C2930   1.405       .  A
C2929      C2934   1.412       .  A
C2930      C2931   1.406       .  A
C2930      H2935   1.085       .  S
C2931      C2932   1.413       .  A
C2931      C2938   1.443       .  S
C2932      C2933   1.406       .  A
C2933      C2934   1.405       .  A
C2933      H2936   1.085       .  S
C2934      C2937   1.443       .  S
C2937      N2939   1.157       .  T
C2938      N2940   1.157       .  T
C2941      C2942   1.404       .  A
C2941      C2946   1.410       .  A
C2942      C2943   1.408   1_545  A
C2942      H2947   1.085       .  S
C2943      C2944   1.415       .  A
C2943      C2950   1.443       .  S
C2944      C2945   1.404       .  A
C2945      C2946   1.395   1_565  A
C2945      H2948   1.084       .  S
C2946      C2949   1.445       .  S
C2949      N2951   1.157       .  T
C2950      N2952   1.157       .  T
C2953      C2954   1.404       .  A
C2953      C2958   1.415       .  A
C2954      C2955   1.398       .  A
C2954      H2959   1.085       .  S
C2955      C2956   1.413       .  A
C2955      C2962   1.445       .  S
C2956      C2957   1.406       .  A
C2957      C2958   1.411       .  A
C2957      H2960   1.084       .  S
C2958      C2961   1.442       .  S
C2961      N2963   1.157       .  T
C2962      N2964   1.157       .  T
C2965      C2966   1.405       .  A
C2965      C2970   1.414       .  A
C2966      C2967   1.401       .  A
C2966      H2971   1.084       .  S
C2967      C2968   1.416       .  A
C2967      C2974   1.444       .  S
C2968      C2969   1.407       .  A
C2969      C2970   1.407       .  A
C2969      H2972   1.084       .  S
C2970      C2973   1.443       .  S
C2973      N2975   1.157       .  T
C2974      N2976   1.157       .  T
C2977      C2978   1.402   1_655  A
C2977      C2982   1.411   1_655  A
C2978      C2979   1.398       .  A
C2978      H2983   1.085   1_455  S
C2979      C2980   1.411       .  A
C2979      C2986   1.444       .  S
C2980      C2981   1.405       .  A
C2981      C2982   1.404       .  A
C2981      H2984   1.084       .  S
C2982      C2985   1.443   1_455  S
C2985      N2987   1.157       .  T
C2986      N2988   1.157       .  T
C2989      C2990   1.403       .  A
C2989      C2994   1.415       .  A
C2990      C2991   1.397       .  A
C2990      H2995   1.085       .  S
C2991      C2992   1.413       .  A
C2991      C2998   1.445       .  S
C2992      C2993   1.405       .  A
C2993      C2994   1.408       .  A
C2993      H2996   1.084       .  S
C2994      C2997   1.443       .  S
C2997      N2999   1.157       .  T
C2998      N3000   1.157       .  T
C3001      C3002   1.404       .  A
C3001      C3006   1.413       .  A
C3002      C3003   1.398       .  A
C3002      H3007   1.085       .  S
C3003      C3004   1.410       .  A
C3003      C3010   1.445       .  S
C3004      C3005   1.404       .  A
C3005      C3006   1.406       .  A
C3005      H3008   1.085       .  S
C3006      C3009   1.443       .  S
C3009      N3011   1.157       .  T
C3010      N3012   1.157       .  T
C3013      C3014   1.402       .  A
C3013      C3018   1.411       .  A
C3014      C3015   1.402       .  A
C3014      H3019   1.085       .  S
C3015      C3016   1.414       .  A
C3015      C3022   1.444       .  S
C3016      C3017   1.405       .  A
C3017      C3018   1.403       .  A
C3017      H3020   1.085       .  S
C3018      C3021   1.444       .  S
C3021      N3023   1.157       .  T
C3022      N3024   1.157       .  T
C3025      C3026   1.405   1_655  A
C3025      C3030   1.413   1_655  A
C3026      C3027   1.406       .  A
C3026      H3031   1.084   1_455  S
C3027      C3028   1.414       .  A
C3027      C3034   1.443       .  S
C3028      C3029   1.402       .  A
C3029      C3030   1.396       .  A
C3029      H3032   1.085       .  S
C3030      C3033   1.445   1_455  S
C3033      N3035   1.157       .  T
C3034      N3036   1.157       .  T
C3037      C3038   1.404       .  A
C3037      C3042   1.413       .  A
C3038      C3039   1.396       .  A
C3038      H3043   1.085       .  S
C3039      C3040   1.410       .  A
C3039      C3046   1.445       .  S
C3040      C3041   1.405       .  A
C3041      C3042   1.407       .  A
C3041      H3044   1.085       .  S
C3042      C3045   1.443       .  S
C3045      N3047   1.157       .  T
C3046      N3048   1.157       .  T
C3049      C3050   1.406       .  A
C3049      C3054   1.412       .  A
C3050      C3051   1.410       .  A
C3050      H3055   1.084       .  S
C3051      C3052   1.413       .  A
C3051      C3058   1.443       .  S
C3052      C3053   1.402       .  A
C3053      C3054   1.398       .  A
C3053      H3056   1.085       .  S
C3054      C3057   1.445       .  S
C3057      N3059   1.157       .  T
C3058      N3060   1.157       .  T
C3061      C3062   1.403       .  A
C3061      C3066   1.411       .  A
C3062      C3063   1.404       .  A
C3062      H3067   1.085       .  S
C3063      C3064   1.414       .  A
C3063      C3070   1.444       .  S
C3064      C3065   1.405       .  A
C3065      C3066   1.403       .  A
C3065      H3068   1.085       .  S
C3066      C3069   1.444       .  S
C3069      N3071   1.157       .  T
C3070      N3072   1.157       .  T
C3073      C3074   1.405       .  A
C3073      C3078   1.415       .  A
C3074      C3075   1.403       .  A
C3074      H3079   1.084       .  S
C3075      C3076   1.417       .  A
C3075      C3082   1.444       .  S
C3076      C3077   1.407       .  A
C3077      C3078   1.407       .  A
C3077      H3080   1.084       .  S
C3078      C3081   1.443       .  S
C3081      N3083   1.157       .  T
C3082      N3084   1.157       .  T
C3085      C3086   1.403       .  A
C3085      C3090   1.415       .  A
C3086      C3087   1.398       .  A
C3086      H3091   1.085       .  S
C3087      C3088   1.411       .  A
C3087      C3094   1.445       .  S
C3088      C3089   1.405       .  A
C3089      C3090   1.410       .  A
C3089      H3092   1.084       .  S
C3090      C3093   1.443       .  S
C3093      N3095   1.157       .  T
C3094      N3096   1.157       .  T
C3097      C3098   1.402       .  A
C3097      C3102   1.412       .  A
C3098      C3099   1.397       .  A
C3098      H3103   1.085       .  S
C3099      C3100   1.414       .  A
C3099      C3106   1.444       .  S
C3100      C3101   1.406       .  A
C3101      C3102   1.407       .  A
C3101      H3104   1.084       .  S
C3102      C3105   1.443       .  S
C3105      N3107   1.157       .  T
C3106      N3108   1.157       .  T
C3109      C3110   1.403       .  A
C3109      C3114   1.412       .  A
C3110      C3111   1.402       .  A
C3110      H3115   1.085       .  S
C3111      C3112   1.413       .  A
C3111      C3118   1.444       .  S
C3112      C3113   1.405       .  A
C3113      C3114   1.404       .  A
C3113      H3116   1.085       .  S
C3114      C3117   1.444       .  S
C3117      N3119   1.157       .  T
C3118      N3120   1.157       .  T
C3121      C3122   1.404       .  A
C3121      C3126   1.413       .  A
C3122      C3123   1.406   1_556  A
C3122      H3127   1.085       .  S
C3123      C3124   1.414       .  A
C3123      C3130   1.443       .  S
C3124      C3125   1.404       .  A
C3125      C3126   1.398   1_554  A
C3125      H3128   1.085       .  S
C3126      C3129   1.445       .  S
C3129      N3131   1.157       .  T
C3130      N3132   1.157       .  T
C3133      C3134   1.405       .  A
C3133      C3138   1.411       .  A
C3134      C3135   1.409       .  A
C3134      H3139   1.084       .  S
C3135      C3136   1.414       .  A
C3135      C3142   1.443       .  S
C3136      C3137   1.404       .  A
C3137      C3138   1.398       .  A
C3137      H3140   1.085       .  S
C3138      C3141   1.445       .  S
C3141      N3143   1.157       .  T
C3142      N3144   1.157       .  T
C3145      C3146   1.406       .  A
C3145      C3150   1.414       .  A
C3146      C3147   1.405       .  A
C3146      H3151   1.085       .  S
C3147      C3148   1.411       .  A
C3147      C3154   1.444       .  S
C3148      C3149   1.403       .  A
C3149      C3150   1.404       .  A
C3149      H3152   1.085       .  S
C3150      C3153   1.444       .  S
C3153      N3155   1.157       .  T
C3154      N3156   1.157       .  T
C3157      C3158   1.405       .  A
C3157      C3162   1.413       .  A
C3158      C3159   1.405   1_556  A
C3158      H3163   1.084       .  S
C3159      C3160   1.413       .  A
C3159      C3166   1.443       .  S
C3160      C3161   1.403       .  A
C3161      C3162   1.399   1_554  A
C3161      H3164   1.085       .  S
C3162      C3165   1.444       .  S
C3165      N3167   1.157       .  T
C3166      N3168   1.157       .  T
C3169      C3170   1.405       .  A
C3169      C3174   1.409       .  A
C3170      C3171   1.410       .  A
C3170      H3175   1.085       .  S
C3171      C3172   1.416       .  A
C3171      C3178   1.442       .  S
C3172      C3173   1.407       .  A
C3173      C3174   1.397       .  A
C3173      H3176   1.084       .  S
C3174      C3177   1.445       .  S
C3177      N3179   1.157       .  T
C3178      N3180   1.157       .  T
C3181      C3182   1.404       .  A
C3181      C3186   1.413       .  A
C3182      C3183   1.403       .  A
C3182      H3187   1.085       .  S
C3183      C3184   1.413       .  A
C3183      C3190   1.444       .  S
C3184      C3185   1.402       .  A
C3185      C3186   1.401       .  A
C3185      H3188   1.085       .  S
C3186      C3189   1.444       .  S
C3189      N3191   1.157       .  T
C3190      N3192   1.157       .  T
C3193      C3194   1.402       .  A
C3193      C3198   1.412       .  A
C3194      C3195   1.398       .  A
C3194      H3199   1.085       .  S
C3195      C3196   1.414       .  A
C3195      C3202   1.445       .  S
C3196      C3197   1.406       .  A
C3197      C3198   1.408       .  A
C3197      H3200   1.084       .  S
C3198      C3201   1.443       .  S
C3201      N3203   1.157       .  T
C3202      N3204   1.157       .  T
C3205      C3206   1.403       .  A
C3205      C3210   1.414       .  A
C3206      C3207   1.397       .  A
C3206      H3211   1.085       .  S
C3207      C3208   1.412       .  A
C3207      C3214   1.445       .  S
C3208      C3209   1.407       .  A
C3209      C3210   1.410       .  A
C3209      H3212   1.084       .  S
C3210      C3213   1.443       .  S
C3213      N3215   1.157       .  T
C3214      N3216   1.157       .  T
C3217      C3218   1.407       .  A
C3217      C3222   1.417       .  A
C3218      C3219   1.403       .  A
C3218      H3223   1.084       .  S
C3219      C3220   1.416       .  A
C3219      C3226   1.444       .  S
C3220      C3221   1.404       .  A
C3221      C3222   1.404       .  A
C3221      H3224   1.085       .  S
C3222      C3225   1.442       .  S
C3225      N3227   1.157       .  T
C3226      N3228   1.158       .  T
C3229      C3230   1.406       .  A
C3229      C3234   1.412       .  A
C3230      C3231   1.410       .  A
C3230      H3235   1.084       .  S
C3231      C3232   1.414       .  A
C3231      C3238   1.442       .  S
C3232      C3233   1.403       .  A
C3233      C3234   1.397       .  A
C3233      H3236   1.085       .  S
C3234      C3237   1.445       .  S
C3237      N3239   1.157       .  T
C3238      N3240   1.157       .  T
C3241      C3242   1.405       .  A
C3241      C3246   1.411       .  A
C3242      C3243   1.407       .  A
C3242      H3247   1.085       .  S
C3243      C3244   1.413       .  A
C3243      C3250   1.443       .  S
C3244      C3245   1.402       .  A
C3245      C3246   1.396       .  A
C3245      H3248   1.085       .  S
C3246      C3249   1.445       .  S
C3249      N3251   1.157       .  T
C3250      N3252   1.157       .  T
C3253      C3254   1.405       .  A
C3253      C3258   1.415       .  A
C3254      C3255   1.400       .  A
C3254      H3259   1.084       .  S
C3255      C3256   1.415       .  A
C3255      C3262   1.444       .  S
C3256      C3257   1.406       .  A
C3257      C3258   1.405       .  A
C3257      H3260   1.084       .  S
C3258      C3261   1.443       .  S
C3261      N3263   1.157       .  T
C3262      N3264   1.157       .  T
C3265      C3266   1.403       .  A
C3265      C3270   1.415       .  A
C3266      C3267   1.398   1_655  A
C3266      H3271   1.085       .  S
C3267      C3268   1.413       .  A
C3267      C3274   1.444       .  S
C3268      C3269   1.405       .  A
C3269      C3270   1.407   1_455  A
C3269      H3272   1.084       .  S
C3270      C3273   1.443       .  S
C3273      N3275   1.157       .  T
C3274      N3276   1.157       .  T
C3277      C3278   1.407       .  A
C3277      C3282   1.416       .  A
C3278      C3279   1.406       .  A
C3278      H3283   1.084       .  S
C3279      C3280   1.414       .  A
C3279      C3286   1.443       .  S
C3280      C3281   1.405       .  A
C3281      C3282   1.401       .  A
C3281      H3284   1.085       .  S
C3282      C3285   1.444       .  S
C3285      N3287   1.157       .  T
C3286      N3288   1.157       .  T
C3289      C3290   1.405       .  A
C3289      C3294   1.416       .  A
C3290      C3291   1.398   1_655  A
C3290      H3295   1.085       .  S
C3291      C3292   1.410       .  A
C3291      C3298   1.445       .  S
C3292      C3293   1.404       .  A
C3293      C3294   1.407   1_455  A
C3293      H3296   1.085       .  S
C3294      C3297   1.443       .  S
C3297      N3299   1.157       .  T
C3298      N3300   1.157       .  T
C3301      C3302   1.403       .  A
C3301      C3306   1.413       .  A
C3302      C3303   1.398       .  A
C3302      H3307   1.085       .  S
C3303      C3304   1.413       .  A
C3303      C3310   1.445       .  S
C3304      C3305   1.406       .  A
C3305      C3306   1.409       .  A
C3305      H3308   1.084       .  S
C3306      C3309   1.443       .  S
C3309      N3311   1.157       .  T
C3310      N3312   1.157       .  T
C3313      C3314   1.404       .  A
C3313      C3318   1.411       .  A
C3314      C3315   1.409       .  A
C3314      H3319   1.085       .  S
C3315      C3316   1.417       .  A
C3315      C3322   1.443       .  S
C3316      C3317   1.405       .  A
C3317      C3318   1.397       .  A
C3317      H3320   1.084       .  S
C3318      C3321   1.445       .  S
C3321      N3323   1.157       .  T
C3322      N3324   1.157       .  T
C3325      C3326   1.406       .  A
C3325      C3330   1.416       .  A
C3326      C3327   1.403       .  A
C3326      H3331   1.085       .  S
C3327      C3328   1.409       .  A
C3327      C3334   1.443       .  S
C3328      C3329   1.403       .  A
C3329      C3330   1.405       .  A
C3329      H3332   1.085       .  S
C3330      C3333   1.443       .  S
C3333      N3335   1.157       .  T
C3334      N3336   1.157       .  T
C3337      C3338   1.402       .  A
C3337      C3342   1.412   1_556  A
C3338      C3339   1.397   1_556  A
C3338      H3343   1.085       .  S
C3339      C3340   1.414       .  A
C3339      C3346   1.444       .  S
C3340      C3341   1.406       .  A
C3341      C3342   1.406       .  A
C3341      H3344   1.084       .  S
C3342      C3345   1.443   1_554  S
C3345      N3347   1.157       .  T
C3346      N3348   1.157       .  T
C3349      C3350   1.407       .  A
C3349      C3354   1.413       .  A
C3350      C3351   1.410       .  A
C3350      H3355   1.084       .  S
C3351      C3352   1.414       .  A
C3351      C3358   1.442       .  S
C3352      C3353   1.403       .  A
C3353      C3354   1.396       .  A
C3353      H3356   1.085       .  S
C3354      C3357   1.445       .  S
C3357      N3359   1.157       .  T
C3358      N3360   1.157       .  T
C3361      C3362   1.404       .  A
C3361      C3366   1.413       .  A
C3362      C3363   1.399       .  A
C3362      H3367   1.084       .  S
C3363      C3364   1.416       .  A
C3363      C3370   1.444       .  S
C3364      C3365   1.407       .  A
C3365      C3366   1.406       .  A
C3365      H3368   1.084       .  S
C3366      C3369   1.443       .  S
C3369      N3371   1.157       .  T
C3370      N3372   1.157       .  T
C3373      C3374   1.406   1_556  A
C3373      C3378   1.417   1_556  A
C3374      C3375   1.397       .  A
C3374      H3379   1.084   1_554  S
C3375      C3376   1.410       .  A
C3375      C3382   1.445       .  S
C3376      C3377   1.404       .  A
C3377      C3378   1.408       .  A
C3377      H3380   1.085       .  S
C3378      C3381   1.442   1_554  S
C3381      N3383   1.157       .  T
C3382      N3384   1.157       .  T
C3385      C3386   1.407       .  A
C3385      C3390   1.414       .  A
C3386      C3387   1.410       .  A
C3386      H3391   1.084       .  S
C3387      C3388   1.412       .  A
C3387      C3394   1.443       .  S
C3388      C3389   1.402       .  A
C3389      C3390   1.398       .  A
C3389      H3392   1.085       .  S
C3390      C3393   1.445       .  S
C3393      N3395   1.157       .  T
C3394      N3396   1.157       .  T
C3397      C3398   1.403       .  A
C3397      C3402   1.413       .  A
C3398      C3399   1.396       .  A
C3398      H3403   1.085       .  S
C3399      C3400   1.413       .  A
C3399      C3406   1.444       .  S
C3400      C3401   1.407       .  A
C3401      C3402   1.407       .  A
C3401      H3404   1.084       .  S
C3402      C3405   1.443       .  S
C3405      N3407   1.157       .  T
C3406      N3408   1.157       .  T
C3409      C3410   1.406       .  A
C3409      C3414   1.417       .  A
C3410      C3411   1.400       .  A
C3410      H3415   1.084       .  S
C3411      C3412   1.415       .  A
C3411      C3418   1.444       .  S
C3412      C3413   1.406       .  A
C3413      C3414   1.407       .  A
C3413      H3416   1.084       .  S
C3414      C3417   1.443       .  S
C3417      N3419   1.157       .  T
C3418      N3420   1.157       .  T
C3421      C3422   1.401       .  A
C3421      C3426   1.412       .  A
C3422      C3423   1.397       .  A
C3422      H3427   1.085       .  S
C3423      C3424   1.414       .  A
C3423      C3430   1.445       .  S
C3424      C3425   1.406       .  A
C3425      C3426   1.406       .  A
C3425      H3428   1.084       .  S
C3426      C3429   1.443       .  S
C3429      N3431   1.157       .  T
C3430      N3432   1.157       .  T
C3433      C3434   1.406       .  A
C3433      C3438   1.414       .  A
C3434      C3435   1.408       .  A
C3434      H3439   1.084       .  S
C3435      C3436   1.412       .  A
C3435      C3442   1.443       .  S
C3436      C3437   1.402       .  A
C3437      C3438   1.397       .  A
C3437      H3440   1.085       .  S
C3438      C3441   1.445       .  S
C3441      N3443   1.157       .  T
C3442      N3444   1.157       .  T
C3445      C3446   1.405       .  A
C3445      C3450   1.412       .  A
C3446      C3447   1.403       .  A
C3446      H3451   1.085       .  S
C3447      C3448   1.411       .  A
C3447      C3454   1.444       .  S
C3448      C3449   1.404       .  A
C3449      C3450   1.404       .  A
C3449      H3452   1.085       .  S
C3450      C3453   1.443       .  S
C3453      N3455   1.157       .  T
C3454      N3456   1.157       .  T
C3457      C3458   1.402       .  A
C3457      C3462   1.413       .  A
C3458      C3459   1.398       .  A
C3458      H3463   1.085       .  S
C3459      C3460   1.414       .  A
C3459      C3466   1.445       .  S
C3460      C3461   1.407       .  A
C3461      C3462   1.409       .  A
C3461      H3464   1.084       .  S
C3462      C3465   1.442       .  S
C3465      N3467   1.157       .  T
C3466      N3468   1.157       .  T
C3469      C3470   1.404       .  A
C3469      C3474   1.412       .  A
C3470      C3471   1.407       .  A
C3470      H3475   1.085       .  S
C3471      C3472   1.414       .  A
C3471      C3478   1.443       .  S
C3472      C3473   1.403       .  A
C3473      C3474   1.398       .  A
C3473      H3476   1.085       .  S
C3474      C3477   1.445       .  S
C3477      N3479   1.157       .  T
C3478      N3480   1.157       .  T
C3481      C3482   1.402       .  A
C3481      C3486   1.412       .  A
C3482      C3483   1.396       .  A
C3482      H3487   1.085       .  S
C3483      C3484   1.415       .  A
C3483      C3490   1.445       .  S
C3484      C3485   1.408       .  A
C3485      C3486   1.409       .  A
C3485      H3488   1.084       .  S
C3486      C3489   1.442       .  S
C3489      N3491   1.157       .  T
C3490      N3492   1.157       .  T
C3493      C3494   1.406       .  A
C3493      C3498   1.414       .  A
C3494      C3495   1.407       .  A
C3494      H3499   1.084       .  S
C3495      C3496   1.416       .  A
C3495      C3502   1.443       .  S
C3496      C3497   1.408       .  A
C3497      C3498   1.401       .  A
C3497      H3500   1.084       .  S
C3498      C3501   1.444       .  S
C3501      N3503   1.157       .  T
C3502      N3504   1.157       .  T
C3505      C3506   1.405       .  A
C3505      C3510   1.413       .  A
C3506      C3507   1.408   1_545  A
C3506      H3511   1.085       .  S
C3507      C3508   1.417       .  A
C3507      C3514   1.442       .  S
C3508      C3509   1.405       .  A
C3509      C3510   1.398   1_565  A
C3509      H3512   1.084       .  S
C3510      C3513   1.445       .  S
C3513      N3515   1.157       .  T
C3514      N3516   1.157       .  T
C3517      C3518   1.403       .  A
C3517      C3522   1.412       .  A
C3518      C3519   1.405       .  A
C3518      H3523   1.085       .  S
C3519      C3520   1.416       .  A
C3519      C3526   1.444       .  S
C3520      C3521   1.405       .  A
C3521      C3522   1.405       .  A
C3521      H3524   1.085       .  S
C3522      C3525   1.443       .  S
C3525      N3527   1.157       .  T
C3526      N3528   1.157       .  T
C3529      C3530   1.402       .  A
C3529      C3534   1.412       .  A
C3530      C3531   1.400       .  A
C3530      H3535   1.085       .  S
C3531      C3532   1.416       .  A
C3531      C3538   1.444       .  S
C3532      C3533   1.406       .  A
C3533      C3534   1.404       .  A
C3533      H3536   1.084       .  S
C3534      C3537   1.443       .  S
C3537      N3539   1.157       .  T
C3538      N3540   1.157       .  T
C3541      C3542   1.402       .  A
C3541      C3546   1.412       .  A
C3542      C3543   1.395   1_545  A
C3542      H3547   1.085       .  S
C3543      C3544   1.413       .  A
C3543      C3550   1.444       .  S
C3544      C3545   1.406       .  A
C3545      C3546   1.405   1_565  A
C3545      H3548   1.084       .  S
C3546      C3549   1.443       .  S
C3549      N3551   1.157       .  T
C3550      N3552   1.157       .  T
C3553      C3554   1.404       .  A
C3553      C3558   1.414       .  A
C3554      C3555   1.399       .  A
C3554      H3559   1.085       .  S
C3555      C3556   1.412       .  A
C3555      C3562   1.445       .  S
C3556      C3557   1.406       .  A
C3557      C3558   1.411       .  A
C3557      H3560   1.084       .  S
C3558      C3561   1.443       .  S
C3561      N3563   1.157       .  T
C3562      N3564   1.157       .  T
C3565      C3566   1.406       .  A
C3565      C3570   1.417       .  A
C3566      C3567   1.404       .  A
C3566      H3571   1.084       .  S
C3567      C3568   1.413       .  A
C3567      C3574   1.443       .  S
C3568      C3569   1.404       .  A
C3569      C3570   1.402       .  A
C3569      H3572   1.085       .  S
C3570      C3573   1.444       .  S
C3573      N3575   1.158       .  T
C3574      N3576   1.157       .  T
C3577      C3578   1.405       .  A
C3577      C3582   1.415       .  A
C3578      C3579   1.398       .  A
C3578      H3583   1.085       .  S
C3579      C3580   1.412       .  A
C3579      C3586   1.445       .  S
C3580      C3581   1.404       .  A
C3581      C3582   1.405       .  A
C3581      H3584   1.085       .  S
C3582      C3585   1.443       .  S
C3585      N3587   1.157       .  T
C3586      N3588   1.157       .  T
C3589      C3590   1.403       .  A
C3589      C3594   1.412       .  A
C3590      C3591   1.398       .  A
C3590      H3595   1.085       .  S
C3591      C3592   1.411       .  A
C3591      C3598   1.445       .  S
C3592      C3593   1.405       .  A
C3593      C3594   1.408       .  A
C3593      H3596   1.084       .  S
C3594      C3597   1.443       .  S
C3597      N3599   1.157       .  T
C3598      N3600   1.157       .  T
C3601      C3602   1.405       .  A
C3601      C3606   1.415       .  A
C3602      C3603   1.401       .  A
C3602      H3607   1.084       .  S
C3603      C3604   1.414       .  A
C3603      C3610   1.444       .  S
C3604      C3605   1.406       .  A
C3605      C3606   1.406       .  A
C3605      H3608   1.084       .  S
C3606      C3609   1.443       .  S
C3609      N3611   1.157       .  T
C3610      N3612   1.157       .  T
C3613      C3614   1.405       .  A
C3613      C3618   1.410       .  A
C3614      C3615   1.409       .  A
C3614      H3619   1.084       .  S
C3615      C3616   1.413       .  A
C3615      C3622   1.443       .  S
C3616      C3617   1.403       .  A
C3617      C3618   1.397       .  A
C3617      H3620   1.085       .  S
C3618      C3621   1.445       .  S
C3621      N3623   1.157       .  T
C3622      N3624   1.157       .  T
C3625      C3626   1.407       .  A
C3625      C3630   1.415       .  A
C3626      C3627   1.407       .  A
C3626      H3631   1.084       .  S
C3627      C3628   1.412       .  A
C3627      C3634   1.443       .  S
C3628      C3629   1.403       .  A
C3629      C3630   1.398       .  A
C3629      H3632   1.085       .  S
C3630      C3633   1.444       .  S
C3633      N3635   1.157       .  T
C3634      N3636   1.157       .  T
C3637      C3638   1.405       .  A
C3637      C3642   1.413       .  A
C3638      C3639   1.403       .  A
C3638      H3643   1.085       .  S
C3639      C3640   1.411       .  A
C3639      C3646   1.444       .  S
C3640      C3641   1.404       .  A
C3641      C3642   1.405       .  A
C3641      H3644   1.085       .  S
C3642      C3645   1.444       .  S
C3645      N3647   1.157       .  T
C3646      N3648   1.157       .  T
C3649      C3650   1.404       .  A
C3649      C3654   1.411       .  A
C3650      C3651   1.406   1_556  A
C3650      H3655   1.085       .  S
C3651      C3652   1.415       .  A
C3651      C3658   1.443       .  S
C3652      C3653   1.404       .  A
C3653      C3654   1.397   1_554  A
C3653      H3656   1.085       .  S
C3654      C3657   1.445       .  S
C3657      N3659   1.157       .  T
C3658      N3660   1.157       .  T
C3661      C3662   1.407       .  A
C3661      C3666   1.412       .  A
C3662      C3663   1.409       .  A
C3662      H3667   1.084       .  S
C3663      C3664   1.412       .  A
C3663      C3670   1.443       .  S
C3664      C3665   1.403       .  A
C3665      C3666   1.397       .  A
C3665      H3668   1.085       .  S
C3666      C3669   1.445       .  S
C3669      N3671   1.157       .  T
C3670      N3672   1.157       .  T
C3673      C3674   1.403       .  A
C3673      C3678   1.412       .  A
C3674      C3675   1.402       .  A
C3674      H3679   1.085       .  S
C3675      C3676   1.412       .  A
C3675      C3682   1.444       .  S
C3676      C3677   1.403       .  A
C3677      C3678   1.402       .  A
C3677      H3680   1.085       .  S
C3678      C3681   1.444       .  S
C3681      N3683   1.157       .  T
C3682      N3684   1.157       .  T
C3685      C3686   1.405       .  A
C3685      C3690   1.412       .  A
C3686      C3687   1.405   1_556  A
C3686      H3691   1.085       .  S
C3687      C3688   1.414       .  A
C3687      C3694   1.443       .  S
C3688      C3689   1.403       .  A
C3689      C3690   1.399   1_554  A
C3689      H3692   1.085       .  S
C3690      C3693   1.444       .  S
C3693      N3695   1.157       .  T
C3694      N3696   1.157       .  T
C3697      C3698   1.406       .  A
C3697      C3702   1.413       .  A
C3698      C3699   1.406       .  A
C3698      H3703   1.084       .  S
C3699      C3700   1.411       .  A
C3699      C3706   1.443       .  S
C3700      C3701   1.401       .  A
C3701      C3702   1.398       .  A
C3701      H3704   1.085       .  S
C3702      C3705   1.445       .  S
C3705      N3707   1.157       .  T
C3706      N3708   1.157       .  T
C3709      C3710   1.401       .  A
C3709      C3714   1.412       .  A
C3710      C3711   1.397       .  A
C3710      H3715   1.085       .  S
C3711      C3712   1.416       .  A
C3711      C3718   1.444       .  S
C3712      C3713   1.408       .  A
C3713      C3714   1.408       .  A
C3713      H3716   1.084       .  S
C3714      C3717   1.443       .  S
C3717      N3719   1.157       .  T
C3718      N3720   1.157       .  T
C3721      C3722   1.402       .  A
C3721      C3726   1.412       .  A
C3722      C3723   1.398       .  A
C3722      H3727   1.085       .  S
C3723      C3724   1.411       .  A
C3723      C3730   1.444       .  S
C3724      C3725   1.406       .  A
C3725      C3726   1.408       .  A
C3725      H3728   1.084       .  S
C3726      C3729   1.443       .  S
C3729      N3731   1.157       .  T
C3730      N3732   1.157       .  T
C3733      C3734   1.401       .  A
C3733      C3738   1.408       .  A
C3734      C3735   1.402       .  A
C3734      H3739   1.085       .  S
C3735      C3736   1.416       .  A
C3735      C3742   1.443       .  S
C3736      C3737   1.407       .  A
C3737      C3738   1.402       .  A
C3737      H3740   1.084       .  S
C3738      C3741   1.444       .  S
C3741      N3743   1.157       .  T
C3742      N3744   1.157       .  T
C3745      C3746   1.401       .  A
C3745      C3750   1.413       .  A
C3746      C3747   1.398   1_565  A
C3746      H3751   1.085       .  S
C3747      C3748   1.413       .  A
C3747      C3754   1.445       .  S
C3748      C3749   1.404       .  A
C3749      C3750   1.405   1_545  A
C3749      H3752   1.085       .  S
C3750      C3753   1.443       .  S
C3753      N3755   1.157       .  T
C3754      N3756   1.157       .  T
C3757      C3758   1.405       .  A
C3757      C3762   1.412       .  A
C3758      C3759   1.406       .  A
C3758      H3763   1.085       .  S
C3759      C3760   1.415       .  A
C3759      C3766   1.443       .  S
C3760      C3761   1.404       .  A
C3761      C3762   1.397       .  A
C3761      H3764   1.085       .  S
C3762      C3765   1.445       .  S
C3765      N3767   1.157       .  T
C3766      N3768   1.157       .  T
C3769      C3770   1.403       .  A
C3769      C3774   1.412       .  A
C3770      C3771   1.404       .  A
C3770      H3775   1.085       .  S
C3771      C3772   1.415       .  A
C3771      C3778   1.444       .  S
C3772      C3773   1.404       .  A
C3773      C3774   1.404       .  A
C3773      H3776   1.085       .  S
C3774      C3777   1.443       .  S
C3777      N3779   1.157       .  T
C3778      N3780   1.157       .  T
C3781      C3782   1.401       .  A
C3781      C3786   1.413       .  A
C3782      C3783   1.397   1_545  A
C3782      H3787   1.085       .  S
C3783      C3784   1.416       .  A
C3783      C3790   1.445       .  S
C3784      C3785   1.406       .  A
C3785      C3786   1.407   1_565  A
C3785      H3788   1.084       .  S
C3786      C3789   1.443       .  S
C3789      N3791   1.157       .  T
C3790      N3792   1.157       .  T
C3793      C3794   1.407       .  A
C3793      C3798   1.413       .  A
C3794      C3795   1.410       .  A
C3794      H3799   1.084       .  S
C3795      C3796   1.413       .  A
C3795      C3802   1.443       .  S
C3796      C3797   1.402       .  A
C3797      C3798   1.397       .  A
C3797      H3800   1.085       .  S
C3798      C3801   1.445       .  S
C3801      N3803   1.157       .  T
C3802      N3804   1.157       .  T
C3805      C3806   1.404       .  A
C3805      C3810   1.416       .  A
C3806      C3807   1.398       .  A
C3806      H3811   1.085       .  S
C3807      C3808   1.411       .  A
C3807      C3814   1.444       .  S
C3808      C3809   1.403       .  A
C3809      C3810   1.406       .  A
C3809      H3812   1.085       .  S
C3810      C3813   1.443       .  S
C3813      N3815   1.157       .  T
C3814      N3816   1.157       .  T
C3817      C3818   1.406       .  A
C3817      C3822   1.416       .  A
C3818      C3819   1.401       .  A
C3818      H3823   1.084       .  S
C3819      C3820   1.414       .  A
C3819      C3826   1.445       .  S
C3820      C3821   1.404       .  A
C3821      C3822   1.405       .  A
C3821      H3824   1.085       .  S
C3822      C3825   1.443       .  S
C3825      N3827   1.157       .  T
C3826      N3828   1.157       .  T
C3829      C3830   1.404   1_655  A
C3829      C3834   1.415   1_655  A
C3830      C3831   1.397       .  A
C3830      H3835   1.085   1_455  S
C3831      C3832   1.412       .  A
C3831      C3838   1.445       .  S
C3832      C3833   1.406       .  A
C3833      C3834   1.409       .  A
C3833      H3836   1.084       .  S
C3834      C3837   1.443   1_455  S
C3837      N3839   1.157       .  T
C3838      N3840   1.157       .  T
C3841      C3842   1.406       .  A
C3841      C3846   1.415       .  A
C3842      C3843   1.408       .  A
C3842      H3847   1.084       .  S
C3843      C3844   1.414       .  A
C3843      C3850   1.443       .  S
C3844      C3845   1.403       .  A
C3845      C3846   1.399       .  A
C3845      H3848   1.085       .  S
C3846      C3849   1.445       .  S
C3849      N3851   1.157       .  T
C3850      N3852   1.157       .  T
C3853      C3854   1.402       .  A
C3853      C3858   1.413       .  A
C3854      C3855   1.397       .  A
C3854      H3859   1.085       .  S
C3855      C3856   1.413       .  A
C3855      C3862   1.445       .  S
C3856      C3857   1.406       .  A
C3857      C3858   1.410       .  A
C3857      H3860   1.084       .  S
C3858      C3861   1.443       .  S
C3861      N3863   1.157       .  T
C3862      N3864   1.157       .  T
C3865      C3866   1.405       .  A
C3865      C3870   1.412       .  A
C3866      C3867   1.406       .  A
C3866      H3871   1.085       .  S
C3867      C3868   1.413       .  A
C3867      C3874   1.443       .  S
C3868      C3869   1.404       .  A
C3869      C3870   1.403       .  A
C3869      H3872   1.085       .  S
C3870      C3873   1.444       .  S
C3873      N3875   1.157       .  T
C3874      N3876   1.157       .  T
C3877      C3878   1.404   1_655  A
C3877      C3882   1.414   1_655  A
C3878      C3879   1.397       .  A
C3878      H3883   1.085   1_455  S
C3879      C3880   1.413       .  A
C3879      C3886   1.445       .  S
C3880      C3881   1.406       .  A
C3881      C3882   1.407       .  A
C3881      H3884   1.084       .  S
C3882      C3885   1.443   1_455  S
C3885      N3887   1.157       .  T
C3886      N3888   1.157       .  T
C3889      C3890   1.402       .  A
C3889      C3894   1.413       .  A
C3890      C3891   1.397       .  A
C3890      H3895   1.085       .  S
C3891      C3892   1.411       .  A
C3891      C3898   1.445       .  S
C3892      C3893   1.405       .  A
C3893      C3894   1.408       .  A
C3893      H3896   1.084       .  S
C3894      C3897   1.443       .  S
C3897      N3899   1.157       .  T
C3898      N3900   1.157       .  T
C3901      C3902   1.406       .  A
C3901      C3906   1.413       .  A
C3902      C3903   1.408       .  A
C3902      H3907   1.084       .  S
C3903      C3904   1.415       .  A
C3903      C3910   1.442       .  S
C3904      C3905   1.405       .  A
C3905      C3906   1.398       .  A
C3905      H3908   1.085       .  S
C3906      C3909   1.445       .  S
C3909      N3911   1.157       .  T
C3910      N3912   1.157       .  T
C3913      C3914   1.405       .  A
C3913      C3918   1.414       .  A
C3914      C3915   1.404       .  A
C3914      H3919   1.084       .  S
C3915      C3916   1.411       .  A
C3915      C3922   1.444       .  S
C3916      C3917   1.402       .  A
C3917      C3918   1.404       .  A
C3917      H3920   1.085       .  S
C3918      C3921   1.444       .  S
C3921      N3923   1.157       .  T
C3922      N3924   1.157       .  T
C3925      C3926   1.405       .  A
C3925      C3930   1.415       .  A
C3926      C3927   1.397   1_556  A
C3926      H3931   1.085       .  S
C3927      C3928   1.411       .  A
C3927      C3934   1.445       .  S
C3928      C3929   1.404       .  A
C3929      C3930   1.406   1_554  A
C3929      H3932   1.085       .  S
C3930      C3933   1.443       .  S
C3933      N3935   1.157       .  T
C3934      N3936   1.157       .  T
C3937      C3938   1.406       .  A
C3937      C3942   1.414       .  A
C3938      C3939   1.409       .  A
C3938      H3943   1.084       .  S
C3939      C3940   1.415       .  A
C3939      C3946   1.443       .  S
C3940      C3941   1.404       .  A
C3941      C3942   1.397       .  A
C3941      H3944   1.085       .  S
C3942      C3945   1.445       .  S
C3945      N3947   1.157       .  T
C3946      N3948   1.157       .  T
C3949      C3950   1.407       .  A
C3949      C3954   1.415       .  A
C3950      C3951   1.410       .  A
C3950      H3955   1.084       .  S
C3951      C3952   1.412       .  A
C3951      C3958   1.443       .  S
C3952      C3953   1.401       .  A
C3953      C3954   1.398       .  A
C3953      H3956   1.085       .  S
C3954      C3957   1.445       .  S
C3957      N3959   1.157       .  T
C3958      N3960   1.157       .  T
C3961      C3962   1.403       .  A
C3961      C3966   1.413       .  A
C3962      C3963   1.403       .  A
C3962      H3967   1.085       .  S
C3963      C3964   1.413       .  A
C3963      C3970   1.443       .  S
C3964      C3965   1.404       .  A
C3965      C3966   1.405       .  A
C3965      H3968   1.085       .  S
C3966      C3969   1.444       .  S
C3969      N3971   1.157       .  T
C3970      N3972   1.157       .  T
C3973      C3974   1.407       .  A
C3973      C3978   1.415   1_556  A
C3974      C3975   1.406   1_556  A
C3974      H3979   1.084       .  S
C3975      C3976   1.413       .  A
C3975      C3982   1.443       .  S
C3976      C3977   1.403       .  A
C3977      C3978   1.399       .  A
C3977      H3980   1.085       .  S
C3978      C3981   1.444   1_554  S
C3981      N3983   1.157       .  T
C3982      N3984   1.157       .  T
C3985      C3986   1.406       .  A
C3985      C3990   1.417       .  A
C3986      C3987   1.397       .  A
C3986      H3991   1.084       .  S
C3987      C3988   1.410       .  A
C3987      C3994   1.445       .  S
C3988      C3989   1.404       .  A
C3989      C3990   1.410       .  A
C3989      H3992   1.085       .  S
C3990      C3993   1.442       .  S
C3993      N3995   1.157       .  T
C3994      N3996   1.157       .  T
C3997      C3998   1.407       .  A
C3997      C4002   1.414       .  A
C3998      C3999   1.405       .  A
C3998      H4003   1.084       .  S
C3999      C4000   1.411       .  A
C3999      C4006   1.443       .  S
C4000      C4001   1.401       .  A
C4001      C4002   1.396       .  A
C4001      H4004   1.085       .  S
C4002      C4005   1.444       .  S
C4005      N4007   1.157       .  T
C4006      N4008   1.157       .  T
C4009      C4010   1.405       .  A
C4009      C4014   1.415       .  A
C4010      C4011   1.397       .  A
C4010      H4015   1.085       .  S
C4011      C4012   1.411       .  A
C4011      C4018   1.445       .  S
C4012      C4013   1.405       .  A
C4013      C4014   1.410       .  A
C4013      H4016   1.084       .  S
C4014      C4017   1.442       .  S
C4017      N4019   1.157       .  T
C4018      N4020   1.157       .  T
C4021      C4022   1.406       .  A
C4021      C4026   1.415       .  A
C4022      C4023   1.404       .  A
C4022      H4027   1.084       .  S
C4023      C4024   1.414       .  A
C4023      C4030   1.444       .  S
C4024      C4025   1.405       .  A
C4025      C4026   1.404       .  A
C4025      H4028   1.084       .  S
C4026      C4029   1.443       .  S
C4029      N4031   1.157       .  T
C4030      N4032   1.157       .  T
