geometry optimzed in LAMMPS
_audit_creation_date              2020-12-01 
_audit_creation_method            'lammps2cif' 
_symmetry_space_group_name_H-M    'P1' 
_symmetry_Int_Tables_number       1 
_symmetry_cell_setting            triclinic 
loop_ 
_symmetry_equiv_pos_as_xyz 
  x,y,z 
_cell_length_a                    102.75093415 
_cell_length_b                    102.4771154417587 
_cell_length_c                    77.93953714426311 
_cell_angle_alpha                 89.83874844142329 
_cell_angle_beta                  90.15354749941395 
_cell_angle_gamma                 90.13689529697513 
loop_ 
_atom_site_label 
_atom_site_type_symbol 
_atom_site_fract_x 
_atom_site_fract_y 
_atom_site_fract_z 
_atom_site_charge 
N1          N  0.54097194  0.23550997  0.88799791    -0.27100
N2          N  0.53660696  0.23813887  0.90357226    -0.35000
C3          C  0.52356042  0.23738082  0.90360136     0.01200
C4          C  0.51936034  0.23400062  0.88737539     0.07300
C5          C  0.53065734  0.23294972  0.87770315    -0.05800
H6          H  0.51752064  0.23919213  0.91469105     0.07900
H7          H  0.53132283  0.23077610  0.86416409     0.09100
Cu8        Cu  0.54813590  0.24274553  0.92460674     0.44200
Cu9        Cu  0.56089750  0.23609199  0.88189427     0.42000
Cu10       Cu  0.58179922  0.24729676  0.91767296     0.43900
N11         N  0.56100969  0.24673554  0.94447232    -0.34500
N12         N  0.57360874  0.24840557  0.94196130    -0.28800
C13         C  0.57953277  0.25004081  0.95725604    -0.04900
C14         C  0.57014207  0.24959327  0.96996368     0.07400
C15         C  0.55853802  0.24733148  0.96139236     0.01200
H16         H  0.58991799  0.25119146  0.95903362     0.08800
H17         H  0.54907317  0.24572356  0.96707555     0.07900
N18         N  0.58834671  0.24350524  0.89298362    -0.35900
N19         N  0.58116137  0.23879698  0.88027543    -0.28100
C20         C  0.58897618  0.23660884  0.86666917    -0.03400
C21         C  0.60155586  0.24031833  0.87100111     0.05200
C22         C  0.60073796  0.24468098  0.88770933     0.03300
H23         H  0.58570999  0.23282266  0.85444643     0.08400
H24         H  0.60865780  0.24819073  0.89564503     0.07300
N25         N  0.65303777  0.21662207  0.80577477    -0.27100
N26         N  0.66502954  0.22128958  0.80490335    -0.35000
C27         C  0.67187667  0.21442860  0.79346001     0.01200
C28         C  0.66390402  0.20497112  0.78657853     0.07300
C29         C  0.65197497  0.20655579  0.79466580    -0.05800
H30         H  0.68194269  0.21630662  0.79020847     0.07900
H31         H  0.64326009  0.20079605  0.79274441     0.09100
Cu32       Cu  0.67199579  0.23701890  0.81847591     0.44200
Cu33       Cu  0.63919258  0.22455718  0.82251487     0.42000
Cu34       Cu  0.65144823  0.25295870  0.84765979     0.43900
N35         N  0.67757815  0.25377628  0.83097096    -0.34500
N36         N  0.66990759  0.26003109  0.84170824    -0.28800
C37         C  0.67586642  0.27115599  0.84658397    -0.04900
C38         C  0.68794301  0.27171603  0.83870187     0.07400
C39         C  0.68860024  0.26062160  0.82873901     0.01200
H40         H  0.67160162  0.27845928  0.85482492     0.08800
H41         H  0.69619471  0.25805258  0.81978851     0.07900
N42         N  0.63329995  0.24415755  0.85079473    -0.35900
N43         N  0.62860011  0.23439133  0.84151257    -0.28100
C44         C  0.61642238  0.23165909  0.84696110    -0.03400
C45         C  0.61344682  0.23995323  0.86040468     0.05200
C46         C  0.62438091  0.24766777  0.86248819     0.03300
H47         H  0.61033653  0.22395705  0.84185103     0.08400
H48         H  0.62574734  0.25536471  0.87180129     0.07300
N49         N  0.54346497  0.23226671  0.12517216    -0.27100
N50         N  0.53957990  0.23547948  0.10952009    -0.35000
C51         C  0.52658355  0.23451933  0.10852547     0.01200
C52         C  0.52189983  0.23038303  0.12417745     0.07300
C53         C  0.53283317  0.22919674  0.13460155    -0.05800
H54         H  0.52092975  0.23655840  0.09709883     0.07900
H55         H  0.53305448  0.22612737  0.14789030     0.09100
Cu56       Cu  0.55164522  0.24044302  0.08934414     0.44200
Cu57       Cu  0.56330101  0.23203774  0.13205639     0.42000
Cu58       Cu  0.58559012  0.24029408  0.09596325     0.43900
N59         N  0.56460843  0.24348593  0.06949507    -0.34500
N60         N  0.57734995  0.24324928  0.07167448    -0.28800
C61         C  0.58311563  0.24492383  0.05627433    -0.04900
C62         C  0.57346217  0.24615699  0.04382738     0.07400
C63         C  0.56188456  0.24532755  0.05279046     0.01200
H64         H  0.59352121  0.24534363  0.05439307     0.08800
H65         H  0.55215641  0.24570438  0.04746039     0.07900
N66         N  0.59144591  0.23699045  0.12137330    -0.35900
N67         N  0.58370532  0.23352241  0.13420205    -0.28100
C68         C  0.59100531  0.23212358  0.14855605    -0.03400
C69         C  0.60384834  0.23505928  0.14462268     0.05200
C70         C  0.60370108  0.23816364  0.12734323     0.03300
H71         H  0.58715992  0.22975225  0.16109481     0.08400
H72         H  0.61193717  0.24117247  0.11965201     0.07300
N73         N  0.65583409  0.21768538  0.21402195    -0.27100
N74         N  0.66545174  0.22560743  0.21841591    -0.35000
C75         C  0.67307091  0.21979602  0.23013706     0.01200
C76         C  0.66820355  0.20751464  0.23338682     0.07300
C77         C  0.65716501  0.20645481  0.22307390    -0.05800
H78         H  0.68157458  0.22423154  0.23592994     0.07900
H79         H  0.65063752  0.19818391  0.22224128     0.09100
Cu80       Cu  0.66833303  0.24400558  0.20856537     0.44200
Cu81       Cu  0.64175231  0.22341566  0.19565478     0.42000
Cu82       Cu  0.64888602  0.25574021  0.17473620     0.43900
N83         N  0.67172904  0.26176648  0.19711770    -0.34500
N84         N  0.66469997  0.26635698  0.18426219    -0.28800
C85         C  0.67019500  0.27757012  0.17866936    -0.04900
C86         C  0.68113020  0.28005305  0.18866560     0.07400
C87         C  0.68182227  0.26977063  0.20007455     0.01200
H88         H  0.66694819  0.28305856  0.16759109     0.08800
H89         H  0.68952961  0.26785812  0.20922163     0.07900
N90         N  0.63330121  0.24344667  0.16854025    -0.35900
N91         N  0.63024817  0.23232786  0.17634438    -0.28100
C92         C  0.61909353  0.22770143  0.16933813    -0.03400
C93         C  0.61514665  0.23615173  0.15638206     0.05200
C94         C  0.62442790  0.24592371  0.15622716     0.03300
H95         H  0.61439825  0.21867204  0.17306703     0.08400
H96         H  0.62461111  0.25438642  0.14789582     0.07300
N97         N  0.71821123  0.05486982  0.62879566    -0.27100
N98         N  0.71667414  0.05128810  0.61261698    -0.35000
C99         C  0.71688794  0.03821849  0.61166036     0.01200
C100        C  0.71877127  0.03323245  0.62793453     0.07300
C101        C  0.71953055  0.04404034  0.63857405    -0.05800
H102        H  0.71588425  0.03271684  0.59989852     0.07900
H103        H  0.72080831  0.04404542  0.65235237     0.09100
Cu104      Cu  0.71501826  0.06398145  0.59203030     0.44200
Cu105      Cu  0.71845135  0.07447917  0.63629633     0.42000
Cu106      Cu  0.72117496  0.09752419  0.60018393     0.43900
N107        N  0.71609699  0.07780703  0.57268655    -0.34500
N108        N  0.71880632  0.09021750  0.57556191    -0.28800
C109        C  0.71999542  0.09645718  0.56040443    -0.04900
C110        C  0.71769997  0.08753766  0.54743641     0.07400
C111        C  0.71541348  0.07580180  0.55568155     0.01200
H112        H  0.72268662  0.10661210  0.55892715     0.08800
H113        H  0.71399252  0.06637356  0.54973894     0.07900
N114        N  0.72129246  0.10287072  0.62586199    -0.35900
N115        N  0.71956780  0.09479204  0.63896010    -0.28100
C116        C  0.71946294  0.10180758  0.65359825    -0.03400
C117        C  0.72148081  0.11481438  0.64945027     0.05200
C118        C  0.72264331  0.11509360  0.63181606     0.03300
H119        H  0.71845902  0.09769839  0.66632998     0.08400
H120        H  0.72423031  0.12360538  0.62383735     0.07300
N121        N  0.70285484  0.16636017  0.71611981    -0.27100
N122        N  0.70768502  0.17833717  0.71660967    -0.35000
C123        C  0.70055679  0.18561197  0.72732581     0.01200
C124        C  0.69080463  0.17790807  0.73404851     0.07300
C125        C  0.69250557  0.16571866  0.72673461    -0.05800
H126        H  0.70265890  0.19566225  0.73055573     0.07900
H127        H  0.68684277  0.15700500  0.72920340     0.09100
Cu128      Cu  0.72432426  0.18450706  0.70406609     0.44200
Cu129      Cu  0.71077563  0.15170627  0.70079854     0.42000
Cu130      Cu  0.73883526  0.16284775  0.67483157     0.43900
N131        N  0.74152026  0.18896872  0.69159002    -0.34500
N132        N  0.74712576  0.18090242  0.68070994    -0.28800
C133        C  0.75834416  0.18632666  0.67519558    -0.04900
C134        C  0.75968938  0.19848903  0.68279120     0.07400
C135        C  0.74893392  0.19971501  0.69330239     0.01200
H136        H  0.76507535  0.18173322  0.66645219     0.08800
H137        H  0.74684379  0.20764282  0.70199606     0.07900
N138        N  0.72893562  0.14522371  0.67145131    -0.35900
N139        N  0.71941432  0.14078260  0.68132472    -0.28100
C140        C  0.71558180  0.12899819  0.67545907    -0.03400
C141        C  0.72285936  0.12605504  0.66106258     0.05200
C142        C  0.73114040  0.13656347  0.65886874     0.03300
H143        H  0.70764364  0.12332605  0.68073753     0.08400
H144        H  0.73823788  0.13786080  0.64877107     0.07300
N145        N  0.71677822  0.05759228  0.39249228    -0.27100
N146        N  0.71755792  0.05328878  0.40847832    -0.35000
C147        C  0.71598669  0.04027754  0.40865105     0.01200
C148        C  0.71404661  0.03607270  0.39202533     0.07300
C149        C  0.71482373  0.04727641  0.38202272    -0.05800
H150        H  0.71673035  0.03423381  0.42001833     0.07900
H151        H  0.71426964  0.04784372  0.36818007     0.09100
Cu152      Cu  0.72164912  0.06489432  0.42951263     0.44200
Cu153      Cu  0.71896934  0.07739489  0.38618580     0.42000
Cu154      Cu  0.72822178  0.09873643  0.42232467     0.43900
N155        N  0.72553000  0.07783043  0.44921832    -0.34500
N156        N  0.72793034  0.09037243  0.44678045    -0.28800
C157        C  0.72890407  0.09625189  0.46220318    -0.04900
C158        C  0.72715242  0.08688159  0.47485147     0.07400
C159        C  0.72492395  0.07536703  0.46614229     0.01200
H160        H  0.73006461  0.10664121  0.46405556     0.08800
H161        H  0.72238194  0.06604950  0.47167777     0.07900
N162        N  0.72653888  0.10492943  0.39684956    -0.35900
N163        N  0.72255425  0.09750409  0.38396088    -0.28100
C164        C  0.72189184  0.10489499  0.36960981    -0.03400
C165        C  0.72588629  0.11745733  0.37359878     0.05200
C166        C  0.72880434  0.11707949  0.39093067     0.03300
H167        H  0.71905407  0.10130632  0.35710420     0.08400
H168        H  0.73213840  0.12513226  0.39875951     0.07300
N169        N  0.70732222  0.17008638  0.30638635    -0.27100
N170        N  0.71342168  0.18136286  0.30428196    -0.35000
C171        C  0.70708108  0.18855768  0.29253138     0.01200
C172        C  0.69637841  0.18161895  0.28695144     0.07300
C173        C  0.69681151  0.16988638  0.29590207    -0.05800
H174        H  0.71016011  0.19810643  0.28816192     0.07900
H175        H  0.69013488  0.16176448  0.29467090     0.09100
Cu176      Cu  0.73038964  0.18670567  0.31671689     0.44200
Cu177      Cu  0.71421266  0.15566743  0.32337776     0.42000
Cu178      Cu  0.74449519  0.16471229  0.34662883     0.43900
N179        N  0.74759280  0.19071982  0.32943882    -0.34500
N180        N  0.75307158  0.18259787  0.34044630    -0.28800
C181        C  0.76429977  0.18794099  0.34612631    -0.04900
C182        C  0.76573911  0.20010926  0.33850824     0.07400
C183        C  0.75506879  0.20143570  0.32778562     0.01200
H184        H  0.77092479  0.18332053  0.35505377     0.08800
H185        H  0.75309335  0.20927916  0.31915520     0.07900
N186        N  0.73375518  0.14769433  0.35097602    -0.35900
N187        N  0.72323179  0.14408893  0.34230420    -0.28100
C188        C  0.71903568  0.13252542  0.34860003    -0.03400
C189        C  0.72713537  0.12885204  0.36202532     0.05200
C190        C  0.73629310  0.13871599  0.36316701     0.03300
H191        H  0.71040288  0.12745038  0.34423059     0.08400
H192        H  0.74422631  0.13935987  0.37228584     0.07300
N193        N  0.76283268  0.45668710  0.89192680    -0.27100
N194        N  0.75909431  0.46083283  0.90719612    -0.35000
C195        C  0.75924808  0.47392464  0.90738058     0.01200
C196        C  0.76335077  0.47830222  0.89154879     0.07300
C197        C  0.76553020  0.46715071  0.88197038    -0.05800
H198        H  0.75696048  0.47983794  0.91844484     0.07900
H199        H  0.76904287  0.46667129  0.86891460     0.09100
Cu200      Cu  0.75498424  0.44883279  0.92786015     0.44200
Cu201      Cu  0.76403210  0.43687400  0.88588718     0.42000
Cu202      Cu  0.75501944  0.41442691  0.92097833     0.43900
N203        N  0.75341186  0.43550841  0.94771707    -0.34500
N204        N  0.75365103  0.42273497  0.94543162    -0.28800
C205        C  0.75322016  0.41683758  0.96093092    -0.04900
C206        C  0.75271336  0.42641871  0.97345498     0.07400
C207        C  0.75275019  0.43810390  0.96459004     0.01200
H208        H  0.75329478  0.40638896  0.96293038     0.08800
H209        H  0.75258428  0.44780278  0.97003483     0.07900
N210        N  0.75802545  0.40877751  0.89546508    -0.35900
N211        N  0.76207213  0.41668588  0.88309130    -0.28100
C212        C  0.76369595  0.40971133  0.86859241    -0.03400
C213        C  0.76028056  0.39687537  0.87188947     0.05200
C214        C  0.75666238  0.39667284  0.88899870     0.03300
H215        H  0.76671026  0.41377638  0.85640459     0.08400
H216        H  0.75342396  0.38827592  0.89628992     0.07300
N217        N  0.78292657  0.34626745  0.80418954    -0.27100
N218        N  0.77759534  0.33454360  0.80283770    -0.35000
C219        C  0.78443573  0.32730968  0.79177129     0.01200
C220        C  0.79459902  0.33469946  0.78560140     0.07300
C221        C  0.79342391  0.34673165  0.79370941    -0.05800
H222        H  0.78189539  0.31747205  0.78799321     0.07900
H223        H  0.79954967  0.35521467  0.79185563     0.09100
Cu224      Cu  0.76061135  0.32856978  0.81445978     0.44200
Cu225      Cu  0.77495644  0.36068746  0.82043319     0.42000
Cu226      Cu  0.74472293  0.34970457  0.84263051     0.43900
N227        N  0.74280373  0.32400624  0.82498432    -0.34500
N228        N  0.73664664  0.33193760  0.83549016    -0.28800
C229        C  0.72539017  0.32628379  0.84035676    -0.04900
C230        C  0.72444440  0.31426851  0.83231655     0.07400
C231        C  0.73572333  0.31309816  0.82284324     0.01200
H232        H  0.71865256  0.33040827  0.84948527     0.08800
H233        H  0.73865474  0.30483848  0.81516261     0.07900
N234        N  0.75461623  0.36696927  0.84776619    -0.35900
N235        N  0.76500554  0.37139304  0.83950858    -0.28100
C236        C  0.76842398  0.38300398  0.84642218    -0.03400
C237        C  0.75996850  0.38578347  0.85979863     0.05200
C238        C  0.75141338  0.37539614  0.86024512     0.03300
H239        H  0.77677737  0.38872017  0.84251819     0.08400
H240        H  0.74341286  0.37401882  0.86907272     0.07300
N241        N  0.76894932  0.45723353  0.12677206    -0.27100
N242        N  0.76523781  0.46103921  0.11128500    -0.35000
C243        C  0.76645602  0.47402466  0.10998078     0.01200
C244        C  0.77129518  0.47874934  0.12525130     0.07300
C245        C  0.77259432  0.46788979  0.13580103    -0.05800
H246        H  0.76387569  0.47965783  0.09871369     0.07900
H247        H  0.77591079  0.46775217  0.14898347     0.09100
Cu248      Cu  0.75875500  0.44891491  0.09197119     0.44200
Cu249      Cu  0.76851341  0.43756643  0.13422454     0.42000
Cu250      Cu  0.75734209  0.41521537  0.09941472     0.43900
N251        N  0.75433256  0.43589036  0.07267896    -0.34500
N252        N  0.75416762  0.42314287  0.07512602    -0.28800
C253        C  0.75230052  0.41722124  0.05987318    -0.04900
C254        C  0.75098095  0.42679604  0.04737339     0.07400
C255        C  0.75247822  0.43848183  0.05595183     0.01200
H256        H  0.75230312  0.40677279  0.05793719     0.08800
H257        H  0.75286082  0.44813682  0.05031202     0.07900
N258        N  0.76088644  0.40977601  0.12479216    -0.35900
N259        N  0.76545284  0.41743539  0.13711183    -0.28100
C260        C  0.76691815  0.41025499  0.15155246    -0.03400
C261        C  0.76284845  0.39761545  0.14817896     0.05200
C262        C  0.75905509  0.39771979  0.13117330     0.03300
H263        H  0.77030392  0.41404518  0.16371705     0.08400
H264        H  0.75534276  0.38954981  0.12386294     0.07300
N265        N  0.78555240  0.34389792  0.21126957    -0.27100
N266        N  0.77945739  0.33263890  0.21352636    -0.35000
C267        C  0.78673048  0.32482634  0.22349792     0.01200
C268        C  0.79808258  0.33129491  0.22767398     0.07300
C269        C  0.79697525  0.34347888  0.21993467    -0.05800
H270        H  0.78387794  0.31513327  0.22758234     0.07900
H271        H  0.80394086  0.35139599  0.22053575     0.09100
Cu272      Cu  0.76153420  0.32784283  0.20319611     0.44200
Cu273      Cu  0.77760352  0.35889165  0.19606753     0.42000
Cu274      Cu  0.74663194  0.34957078  0.17419283     0.43900
N275        N  0.74396643  0.32367666  0.19145384    -0.34500
N276        N  0.73829567  0.33168727  0.18047425    -0.28800
C277        C  0.72688491  0.32640716  0.17543011    -0.04900
C278        C  0.72547147  0.31439489  0.18347429     0.07400
C279        C  0.73639239  0.31311931  0.19374303     0.01200
H280        H  0.72001991  0.33105098  0.16682963     0.08800
H281        H  0.73844997  0.30538483  0.20280471     0.07900
N282        N  0.75663252  0.36702357  0.17047854    -0.35900
N283        N  0.76736598  0.37074654  0.17860036    -0.28100
C284        C  0.77094220  0.38259542  0.17255860    -0.03400
C285        C  0.76218298  0.38631130  0.15990244     0.05200
C286        C  0.75330942  0.37620771  0.15895122     0.03300
H287        H  0.77966573  0.38776767  0.17638869     0.08400
H288        H  0.74513203  0.37544962  0.15023088     0.07300
N289        N  0.83209914  0.29457619  0.71460712    -0.27100
N290        N  0.82124926  0.28808475  0.71791392    -0.35000
C291        C  0.81444145  0.29449192  0.72992212     0.01200
C292        C  0.82130841  0.30553788  0.73455427     0.07300
C293        C  0.83245526  0.30536424  0.72453854    -0.05800
H294        H  0.80514282  0.29133178  0.73494461     0.07900
H295        H  0.84017441  0.31255946  0.72440112     0.09100
Cu296      Cu  0.81602257  0.27075532  0.70606810     0.44200
Cu297      Cu  0.84553356  0.28800512  0.69641836     0.42000
Cu298      Cu  0.83598273  0.25797811  0.67262935     0.43900
N299        N  0.81195517  0.25337281  0.69361722    -0.34500
N300        N  0.81922125  0.24845382  0.68126240    -0.28800
C301        C  0.81371153  0.23722645  0.67578191    -0.04900
C302        C  0.80250316  0.23503528  0.68527548     0.07400
C303        C  0.80166603  0.24552664  0.69629114     0.01200
H304        H  0.81734993  0.23134377  0.66534616     0.08800
H305        H  0.79396609  0.24745506  0.70537287     0.07900
N306        N  0.85275488  0.26900367  0.66796949    -0.35900
N307        N  0.85654217  0.27930017  0.67697667    -0.28100
C308        C  0.86816619  0.28340992  0.67099149    -0.03400
C309        C  0.87171666  0.27550296  0.65742292     0.05200
C310        C  0.86170528  0.26654825  0.65582293     0.03300
H311        H  0.87345706  0.29177048  0.67583939     0.08400
H312        H  0.86105717  0.25868022  0.64662785     0.07300
N313        N  0.94337346  0.28510478  0.62989301    -0.27100
N314        N  0.94735178  0.28497957  0.61377808    -0.35000
C315        C  0.96030153  0.28636591  0.61331425     0.01200
C316        C  0.96485377  0.28765325  0.62986180     0.07300
C317        C  0.95389861  0.28654345  0.64018373    -0.05800
H318        H  0.96605514  0.28597573  0.60172005     0.07900
H319        H  0.95362724  0.28662602  0.65405646     0.09100
Cu320      Cu  0.93567205  0.28202234  0.59264201     0.44200
Cu321      Cu  0.92367744  0.28284795  0.63614343     0.42000
Cu322      Cu  0.90270910  0.27421990  0.59851004     0.43900
N323        N  0.92369074  0.27734918  0.57234825    -0.34500
N324        N  0.91128618  0.27433323  0.57427144    -0.28800
C325        C  0.90612281  0.27180960  0.55868871    -0.04900
C326        C  0.91589092  0.27308211  0.54652247     0.07400
C327        C  0.92682224  0.27679238  0.55565570     0.01200
H328        H  0.89604497  0.26927933  0.55636771     0.08800
H329        H  0.93629770  0.27922456  0.55053414     0.07900
N330        N  0.89634324  0.27584422  0.62383813    -0.35900
N331        N  0.90354139  0.27954498  0.63712006    -0.28100
C332        C  0.89585562  0.28024061  0.65110654    -0.03400
C333        C  0.88335563  0.27656313  0.64645737     0.05200
C334        C  0.88405796  0.27379736  0.62915212     0.03300
H335        H  0.89919012  0.28290718  0.66380382     0.08400
H336        H  0.87613473  0.27073389  0.62091001     0.07300
N337        N  0.83904738  0.29348263  0.29824783    -0.27100
N338        N  0.82757616  0.28766585  0.29687397    -0.35000
C339        C  0.82043700  0.29371170  0.28481905     0.01200
C340        C  0.82761019  0.30390725  0.27819901     0.07300
C341        C  0.83941821  0.30352459  0.28693264    -0.05800
H342        H  0.81063228  0.29094661  0.28123210     0.07900
H343        H  0.84757285  0.31010221  0.28530331     0.09100
Cu344      Cu  0.82155333  0.27172220  0.31105380     0.44200
Cu345      Cu  0.85314932  0.28732145  0.31622375     0.42000
Cu346      Cu  0.84165842  0.26021302  0.34425251     0.43900
N347        N  0.81717093  0.25504252  0.32479639    -0.34500
N348        N  0.82469750  0.25050670  0.33718682    -0.28800
C349        C  0.81936745  0.23946025  0.34350857    -0.04900
C350        C  0.80797988  0.23697361  0.33449963     0.07400
C351        C  0.80684130  0.24712511  0.32289808     0.01200
H352        H  0.82330041  0.23387619  0.35411539     0.08800
H353        H  0.79899858  0.24870213  0.31383857     0.07900
N354        N  0.85891953  0.27053784  0.34766340    -0.35900
N355        N  0.86362154  0.27964890  0.33726423    -0.28100
C356        C  0.87543217  0.28338797  0.34323174    -0.03400
C357        C  0.87807510  0.27647308  0.35818687     0.05200
C358        C  0.86736615  0.26852502  0.36057930     0.03300
H359        H  0.88144609  0.29087023  0.33744463     0.08400
H360        H  0.86587643  0.26160087  0.37089971     0.07300
N361        N  0.94936468  0.28065376  0.39162797    -0.27100
N362        N  0.95276244  0.27947708  0.40795496    -0.35000
C363        C  0.96577979  0.27994296  0.40932113     0.01200
C364        C  0.97096471  0.28156476  0.39316889     0.07300
C365        C  0.96031770  0.28190866  0.38215064    -0.05800
H366        H  0.97111166  0.27916743  0.42127254     0.07900
H367        H  0.96052514  0.28297018  0.36834196     0.09100
Cu368      Cu  0.93997583  0.27735383  0.42823181     0.44200
Cu369      Cu  0.92975282  0.28035144  0.38366810     0.42000
Cu370      Cu  0.90648454  0.27427684  0.41926653     0.43900
N371        N  0.92621872  0.27556434  0.44742338    -0.34500
N372        N  0.91365664  0.27430727  0.44425472    -0.28800
C373        C  0.90724508  0.27329054  0.45928071    -0.04900
C374        C  0.91626883  0.27410811  0.47253567     0.07400
C375        C  0.92818625  0.27540507  0.46446369     0.01200
H376        H  0.89688124  0.27170444  0.46036099     0.08800
H377        H  0.93762655  0.27615696  0.47057250     0.07900
N378        N  0.90137085  0.27615483  0.39351064    -0.35900
N379        N  0.90940543  0.27888572  0.38070568    -0.28100
C380        C  0.90235814  0.27986350  0.36606992    -0.03400
C381        C  0.88938548  0.27743632  0.36989111     0.05200
C382        C  0.88919322  0.27508430  0.38734313     0.03300
H383        H  0.90642300  0.28175031  0.35351474     0.08400
H384        H  0.88075539  0.27279189  0.39507609     0.07300
N385        N  0.77698427  0.66587112  0.79966994    -0.27100
N386        N  0.77074522  0.67692478  0.79666493    -0.35000
C387        C  0.77758146  0.68412639  0.78544687     0.01200
C388        C  0.78876570  0.67743691  0.78129689     0.07300
C389        C  0.78807028  0.66581129  0.79038369    -0.05800
H390        H  0.77476865  0.69371850  0.78095113     0.07900
H391        H  0.79521255  0.65807467  0.79057481     0.09100
Cu392      Cu  0.75369479  0.68253139  0.80862959     0.44200
Cu393      Cu  0.77014278  0.65203207  0.81721528     0.42000
Cu394      Cu  0.74126235  0.66234102  0.84202961     0.43900
N395        N  0.73713930  0.68721235  0.82236279    -0.34500
N396        N  0.73233653  0.67973866  0.83466794    -0.28800
C397        C  0.72157994  0.68546185  0.84104622    -0.04900
C398        C  0.71970703  0.69715704  0.83244162     0.07400
C399        C  0.72968783  0.69790030  0.82063586     0.01200
H400        H  0.71568377  0.68151040  0.85130737     0.08800
H401        H  0.73142088  0.70565848  0.81147206     0.07900
N402        N  0.75188893  0.64534640  0.84658929    -0.35900
N403        N  0.76179321  0.64126214  0.83718108    -0.28100
C404        C  0.76597700  0.62973287  0.84347035    -0.03400
C405        C  0.75853201  0.62656542  0.85765738     0.05200
C406        C  0.74976408  0.63669345  0.85930354     0.03300
H407        H  0.77415626  0.62431617  0.83848686     0.08400
H408        H  0.74231976  0.63767661  0.86900395     0.07300
N409        N  0.76747332  0.55537151  0.88871966    -0.27100
N410        N  0.76879380  0.55173244  0.90491919    -0.35000
C411        C  0.76907836  0.53867313  0.90585952     0.01200
C412        C  0.76774897  0.53368883  0.88953523     0.07300
C413        C  0.76681387  0.54454539  0.87887089    -0.05800
H414        H  0.76983816  0.53316224  0.91768205     0.07900
H415        H  0.76574474  0.54459869  0.86506772     0.09100
Cu416      Cu  0.76888121  0.56423878  0.92559293     0.44200
Cu417      Cu  0.76610163  0.57509603  0.88167732     0.42000
Cu418      Cu  0.75978356  0.59720035  0.91817522     0.43900
N419        N  0.76557450  0.57723654  0.94523661    -0.34500
N420        N  0.76181818  0.58940303  0.94265528    -0.28800
C421        C  0.75981214  0.59512130  0.95796106    -0.04900
C422        C  0.76237134  0.58601773  0.97068574     0.07400
C423        C  0.76609955  0.57484840  0.96216922     0.01200
H424        H  0.75681298  0.60514184  0.95966450     0.08800
H425        H  0.76873892  0.56557709  0.96786050     0.07900
N426        N  0.76017218  0.60294787  0.89258833    -0.35900
N427        N  0.76321043  0.59530328  0.87951828    -0.28100
C428        C  0.76335698  0.60257217  0.86505327    -0.03400
C429        C  0.75998817  0.61525527  0.86922178     0.05200
C430        C  0.75799550  0.61510790  0.88673154     0.03300
H431        H  0.76539989  0.59882705  0.85237992     0.08400
H432        H  0.75538124  0.62331046  0.89471540     0.07300
N433        N  0.78186312  0.66983160  0.20882326    -0.27100
N434        N  0.77466191  0.68012882  0.21245162    -0.35000
C435        C  0.78157006  0.68845870  0.22209182     0.01200
C436        C  0.79382618  0.68335425  0.22456548     0.07300
C437        C  0.79366272  0.67138387  0.21625860    -0.05800
H438        H  0.77783109  0.69750661  0.22720961     0.07900
H439        H  0.80149077  0.66436078  0.21569737     0.09100
Cu440      Cu  0.75583718  0.68299481  0.20419838     0.44200
Cu441      Cu  0.77480819  0.65465523  0.19343873     0.42000
Cu442      Cu  0.74397798  0.66311607  0.17079817     0.43900
N443        N  0.73801790  0.68614054  0.19282515    -0.34500
N444        N  0.73365684  0.67913544  0.17982990    -0.28800
C445        C  0.72217703  0.68410989  0.17457694    -0.04900
C446        C  0.71915964  0.69459708  0.18504352     0.07400
C447        C  0.72948899  0.69565976  0.19632795     0.01200
H448        H  0.71647361  0.68040831  0.16395474     0.08800
H449        H  0.73097522  0.70310764  0.20594099     0.07900
N450        N  0.75490574  0.64632499  0.16664541    -0.35900
N451        N  0.76541907  0.64279355  0.17537815    -0.28100
C452        C  0.76941341  0.63106280  0.16960442    -0.03400
C453        C  0.76117707  0.62721608  0.15646094     0.05200
C454        C  0.75217350  0.63713016  0.15490620     0.03300
H455        H  0.77802672  0.62602255  0.17406942     0.08400
H456        H  0.74418692  0.63764041  0.14585088     0.07300
N457        N  0.76849195  0.55574604  0.12641528    -0.27100
N458        N  0.76652181  0.55185226  0.11046049    -0.35000
C459        C  0.76761048  0.53884982  0.10962609     0.01200
C460        C  0.77027551  0.53415390  0.12582671     0.07300
C461        C  0.77084839  0.54512346  0.13625214    -0.05800
H462        H  0.76651686  0.53319276  0.09800494     0.07900
H463        H  0.77301749  0.54540640  0.14982883     0.09100
Cu464      Cu  0.76265837  0.56391935  0.09001096     0.44200
Cu465      Cu  0.76777884  0.57551753  0.13318862     0.42000
Cu466      Cu  0.75957890  0.59762508  0.09660940     0.43900
N467        N  0.76029517  0.57679455  0.07003695    -0.34500
N468        N  0.75929009  0.58951979  0.07220886    -0.28800
C469        C  0.75894511  0.59534153  0.05668130    -0.04900
C470        C  0.75984719  0.58570593  0.04431556     0.07400
C471        C  0.76058391  0.57409421  0.05321922     0.01200
H472        H  0.75855195  0.60577520  0.05456759     0.08800
H473        H  0.76174109  0.56442930  0.04788698     0.07900
N474        N  0.76144109  0.60330958  0.12208963    -0.35900
N475        N  0.76502240  0.59574178  0.13508793    -0.28100
C476        C  0.76579325  0.60311239  0.14939412    -0.03400
C477        C  0.76229496  0.61577335  0.14518019     0.05200
C478        C  0.75955793  0.61549916  0.12785116     0.03300
H479        H  0.76831398  0.59944667  0.16200037     0.08400
H480        H  0.75656337  0.62363971  0.11990686     0.07300
N481        N  0.83100140  0.71605489  0.71360544    -0.27100
N482        N  0.81957466  0.72192003  0.71464323    -0.35000
C483        C  0.81196332  0.71540390  0.72569524     0.01200
C484        C  0.81881860  0.70486785  0.73191489     0.07300
C485        C  0.83091167  0.70554553  0.72411200    -0.05800
H486        H  0.80213820  0.71818171  0.72903268     0.07900
H487        H  0.83899294  0.69893321  0.72592071     0.09100
Cu488      Cu  0.81443503  0.73865632  0.70155346     0.44200
Cu489      Cu  0.84575634  0.72280121  0.69737781     0.42000
Cu490      Cu  0.83577531  0.75075849  0.66999521     0.43900
N491        N  0.81096071  0.75585727  0.68856405    -0.34500
N492        N  0.81884725  0.76050037  0.67667577    -0.28800
C493        C  0.81406674  0.77191166  0.67080342    -0.04900
C494        C  0.80269522  0.77457902  0.67966095     0.07400
C495        C  0.80097040  0.76410975  0.69063889     0.01200
H496        H  0.81841286  0.77763626  0.66064305     0.08800
H497        H  0.79303206  0.76262272  0.69953043     0.07900
N498        N  0.85297287  0.74033608  0.66739491    -0.35900
N499        N  0.85704409  0.73087186  0.67769785    -0.28100
C500        C  0.86888470  0.72690097  0.67239561    -0.03400
C501        C  0.87223508  0.73405515  0.65795983     0.05200
C502        C  0.86191656  0.74239145  0.65514455     0.03300
H503        H  0.87437976  0.71903187  0.67817397     0.08400
H504        H  0.86097969  0.74950234  0.64492527     0.07300
N505        N  0.94354134  0.72456332  0.62833878    -0.27100
N506        N  0.94697369  0.72280512  0.61216824    -0.35000
C507        C  0.95997015  0.72187539  0.61116998     0.01200
C508        C  0.96512599  0.72322438  0.62741360     0.07300
C509        C  0.95444556  0.72492660  0.63808298    -0.05800
H510        H  0.96534422  0.72099255  0.59931103     0.07900
H511        H  0.95460627  0.72664863  0.65176560     0.09100
Cu512      Cu  0.93439927  0.72353133  0.59148452     0.44200
Cu513      Cu  0.92401381  0.72708713  0.63543175     0.42000
Cu514      Cu  0.90190987  0.73314858  0.59836248     0.43900
N515        N  0.92156261  0.72691165  0.57155002    -0.34500
N516        N  0.90944253  0.73072768  0.57392564    -0.28800
C517        C  0.90357120  0.73204038  0.55853567    -0.04900
C518        C  0.91256503  0.72904995  0.54592759     0.07400
C519        C  0.92379400  0.72571395  0.55466705     0.01200
H520        H  0.89344482  0.73456008  0.55673141     0.08800
H521        H  0.93289931  0.72254284  0.54914473     0.07900
N522        N  0.89625882  0.73274653  0.62389450    -0.35900
N523        N  0.90382866  0.72993044  0.63719031    -0.28100
C524        C  0.89642554  0.72966202  0.65148222    -0.03400
C525        C  0.88373928  0.73267435  0.64690465     0.05200
C526        C  0.88403490  0.73461392  0.62939654     0.03300
H527        H  0.90006044  0.72773377  0.66427967     0.08400
H528        H  0.87588014  0.73698538  0.62115099     0.07300
N529        N  0.83373365  0.72084316  0.29639140    -0.27100
N530        N  0.82400395  0.72862877  0.29212689    -0.35000
C531        C  0.81710172  0.72317012  0.27938063     0.01200
C532        C  0.82259296  0.71127735  0.27540452     0.07300
C533        C  0.83323525  0.71012761  0.28634505    -0.05800
H534        H  0.80858419  0.72750109  0.27350842     0.07900
H535        H  0.84019736  0.70224195  0.28682601     0.09100
Cu536      Cu  0.82002010  0.74617286  0.30399666     0.44200
Cu537      Cu  0.84674817  0.72556221  0.31614677     0.42000
Cu538      Cu  0.83693340  0.75388291  0.34269110     0.43900
N539        N  0.81596662  0.76258650  0.31834967    -0.34500
N540        N  0.82191347  0.76539025  0.33294127    -0.28800
C541        C  0.81647634  0.77619959  0.33963178    -0.04900
C542        C  0.80666717  0.78030633  0.32865283     0.07400
C543        C  0.80665325  0.77148548  0.31530403     0.01200
H544        H  0.81924059  0.78055467  0.35173681     0.08800
H545        H  0.80002349  0.77126059  0.30449978     0.07900
N546        N  0.85285807  0.74188016  0.34779076    -0.35900
N547        N  0.85687387  0.73228327  0.33775586    -0.28100
C548        C  0.86799555  0.72735503  0.34428828    -0.03400
C549        C  0.87094627  0.73396474  0.35926927     0.05200
C550        C  0.86112675  0.74304170  0.36113346     0.03300
H551        H  0.87335876  0.71932879  0.33876985     0.08400
H552        H  0.86020830  0.75017825  0.37126100     0.07300
N553        N  0.94130327  0.72142241  0.38954339    -0.27100
N554        N  0.94506583  0.71911093  0.40549538    -0.35000
C555        C  0.95810522  0.71882092  0.40620024     0.01200
C556        C  0.96288919  0.72121021  0.38998541     0.07300
C557        C  0.95199092  0.72282815  0.37964780    -0.05800
H558        H  0.96371959  0.71782190  0.41789411     0.07900
H559        H  0.95184255  0.72534825  0.36616403     0.09100
Cu560      Cu  0.93275184  0.71895716  0.42634040     0.44200
Cu561      Cu  0.92168857  0.72377786  0.38308305     0.42000
Cu562      Cu  0.89992366  0.72939954  0.42008717     0.43900
N563        N  0.92016100  0.72243460  0.44637388    -0.34500
N564        N  0.90805146  0.72646747  0.44432651    -0.28800
C565        C  0.90266707  0.72814853  0.45992622    -0.04900
C566        C  0.91183791  0.72484948  0.47226580     0.07400
C567        C  0.92285288  0.72149637  0.46319154     0.01200
H568        H  0.89283236  0.73148464  0.46213002     0.08800
H569        H  0.93226061  0.71887577  0.46839282     0.07900
N570        N  0.89414519  0.73022057  0.39442531    -0.35900
N571        N  0.90172397  0.72746247  0.38119667    -0.28100
C572        C  0.89458876  0.72814829  0.36668026    -0.03400
C573        C  0.88203970  0.73175674  0.37094724     0.05200
C574        C  0.88212766  0.73304509  0.38859833     0.03300
H575        H  0.89834864  0.72648518  0.35392147     0.08400
H576        H  0.87397806  0.73561109  0.39666843     0.07300
N577        N  0.70730616  0.84720561  0.71209402    -0.27100
N578        N  0.71446913  0.83712950  0.71695724    -0.35000
C579        C  0.70789008  0.83004143  0.72857286     0.01200
C580        C  0.69593867  0.83579593  0.73120721     0.07300
C581        C  0.69587398  0.84674041  0.72064911    -0.05800
H582        H  0.71125629  0.82091005  0.73397689     0.07900
H583        H  0.68786353  0.85340418  0.71862242     0.09100
Cu584      Cu  0.73193823  0.83181026  0.70589856     0.44200
Cu585      Cu  0.71325792  0.85997543  0.69244665     0.42000
Cu586      Cu  0.73982722  0.84675774  0.66605465     0.43900
N587        N  0.74728783  0.82569785  0.69083216    -0.34500
N588        N  0.75007212  0.83098857  0.67580274    -0.28800
C589        C  0.76014713  0.82453915  0.66880304    -0.04900
C590        C  0.76372715  0.81466541  0.67996470     0.07400
C591        C  0.75544474  0.81571635  0.69381707     0.01200
H592        H  0.76439077  0.82673494  0.65643797     0.08800
H593        H  0.75519798  0.80951966  0.70507706     0.07900
N594        N  0.73044166  0.86427180  0.66120583    -0.35900
N595        N  0.72148054  0.86956990  0.67117478    -0.28100
C596        C  0.71881317  0.88165309  0.66518734    -0.03400
C597        C  0.72630174  0.88390038  0.65068528     0.05200
C598        C  0.73346347  0.87265040  0.64852074     0.03300
H599        H  0.71191385  0.88828900  0.67092135     0.08400
H600        H  0.74075863  0.87087233  0.63882307     0.07300
N601        N  0.72441796  0.95658150  0.62417856    -0.27100
N602        N  0.72612017  0.96118649  0.60846301    -0.35000
C603        C  0.72503302  0.97422522  0.60865262     0.01200
C604        C  0.72249978  0.97809617  0.62522103     0.07300
C605        C  0.72222580  0.96670617  0.63484449    -0.05800
H606        H  0.72595997  0.98045404  0.59748518     0.07900
H607        H  0.72047189  0.96583474  0.64847836     0.09100
Cu608      Cu  0.72981822  0.94995658  0.58704655     0.44200
Cu609      Cu  0.72505077  0.93662953  0.62978394     0.42000
Cu610      Cu  0.73353736  0.91577976  0.59293395     0.43900
N611        N  0.73336477  0.93740451  0.56689684    -0.34500
N612        N  0.73477130  0.92467938  0.56892264    -0.28800
C613        C  0.73635446  0.91916102  0.55338576    -0.04900
C614        C  0.73604628  0.92895623  0.54112033     0.07400
C615        C  0.73403917  0.94036131  0.55011093     0.01200
H616        H  0.73732041  0.90879378  0.55115038     0.08800
H617        H  0.73282032  0.95005145  0.54480321     0.07900
N618        N  0.73021859  0.90896129  0.61777364    -0.35900
N619        N  0.72660606  0.91629842  0.63088633    -0.28100
C620        C  0.72445230  0.90852311  0.64459154    -0.03400
C621        C  0.72699708  0.89575454  0.63992839     0.05200
C622        C  0.73069822  0.89642448  0.62290234     0.03300
H623        H  0.72147217  0.91194022  0.65709664     0.08400
H624        H  0.73331024  0.88834086  0.61471030     0.07300
N625        N  0.70510442  0.84520628  0.30229084    -0.27100
N626        N  0.71234724  0.83486847  0.29894232    -0.35000
C627        C  0.70593234  0.82695879  0.28813681     0.01200
C628        C  0.69405564  0.83248830  0.28425142     0.07300
C629        C  0.69376893  0.84405203  0.29354570    -0.05800
H630        H  0.70953247  0.81763663  0.28374387     0.07900
H631        H  0.68575184  0.85084370  0.29442641     0.09100
Cu632      Cu  0.73029356  0.83096089  0.30976017     0.44200
Cu633      Cu  0.71120513  0.85979820  0.31951419     0.42000
Cu634      Cu  0.74242543  0.85191699  0.34162382     0.43900
N635        N  0.74778541  0.82755093  0.32205149    -0.34500
N636        N  0.75249353  0.83532573  0.33404959    -0.28800
C637        C  0.76402541  0.83056907  0.33949536    -0.04900
C638        C  0.76658531  0.81927824  0.33037461     0.07400
C639        C  0.75607220  0.81763069  0.31953413     0.01200
H640        H  0.77005991  0.83497219  0.34930444     0.08800
H641        H  0.75458298  0.80981583  0.31042626     0.07900
N642        N  0.73119181  0.86842676  0.34613334    -0.35900
N643        N  0.72034905  0.87171809  0.33795418    -0.28100
C644        C  0.71628519  0.88336707  0.34403288    -0.03400
C645        C  0.72487292  0.88740280  0.35674057     0.05200
C646        C  0.73410483  0.87766613  0.35772135     0.03300
H647        H  0.70752892  0.88832088  0.33990026     0.08400
H648        H  0.74244516  0.87734588  0.36621903     0.07300
N649        N  0.71987842  0.95939445  0.38668179    -0.27100
N650        N  0.72420723  0.96344780  0.40177212    -0.35000
C651        C  0.72368188  0.97650363  0.40241982     0.01200
C652        C  0.71885585  0.98106042  0.38705251     0.07300
C653        C  0.71643674  0.96998236  0.37729690    -0.05800
H654        H  0.72644816  0.98228518  0.41344566     0.07900
H655        H  0.71243581  0.96964675  0.36445475     0.09100
Cu656      Cu  0.73000366  0.95163498  0.42183917     0.44200
Cu657      Cu  0.71923200  0.93945844  0.38019948     0.42000
Cu658      Cu  0.73159569  0.91798534  0.41511223     0.43900
N659        N  0.73314994  0.93873648  0.44176853    -0.34500
N660        N  0.73364160  0.92599824  0.43941790    -0.28800
C661        C  0.73463553  0.92005347  0.45481243    -0.04900
C662        C  0.73472623  0.92960034  0.46735279     0.07400
C663        C  0.73383262  0.94131353  0.45864061     0.01200
H664        H  0.73485619  0.90959811  0.45675891     0.08800
H665        H  0.73323336  0.95096014  0.46418713     0.07900
N666        N  0.72723780  0.91190282  0.39033200    -0.35900
N667        N  0.72206669  0.91917262  0.37799238    -0.28100
C668        C  0.71998855  0.91153177  0.36411961    -0.03400
C669        C  0.72427757  0.89901097  0.36790745     0.05200
C670        C  0.72884613  0.89968359  0.38454764     0.03300
H671        H  0.71611082  0.91493821  0.35199446     0.08400
H672        H  0.73297791  0.89179220  0.39202292     0.07300
N673        N  0.54204046  0.78805378  0.88857965    -0.27100
N674        N  0.53854000  0.78777325  0.90490284    -0.35000
C675        C  0.52552715  0.78840656  0.90598852     0.01200
C676        C  0.52041370  0.78898879  0.88963865     0.07300
C677        C  0.53115071  0.78877337  0.87880581    -0.05800
H678        H  0.52012407  0.78812988  0.91788143     0.07900
H679        H  0.53105092  0.78903562  0.86493192     0.09100
Cu680      Cu  0.55111974  0.78576715  0.92552501     0.44200
Cu681      Cu  0.56170330  0.78707111  0.88122814     0.42000
Cu682      Cu  0.58440691  0.78066174  0.91797538     0.43900
N683        N  0.56425934  0.78301981  0.94538363    -0.34500
N684        N  0.57679253  0.78106746  0.94279849    -0.28800
C685        C  0.58275034  0.77959948  0.95814948    -0.04900
C686        C  0.57345508  0.78080673  0.97098335     0.07400
C687        C  0.56185339  0.78282010  0.96232221     0.01200
H688        H  0.59298302  0.77749842  0.95976000     0.08800
H689        H  0.55233100  0.78408014  0.96796498     0.07900
N690        N  0.58977781  0.78186458  0.89216389    -0.35900
N691        N  0.58198689  0.78477511  0.87910820    -0.28100
C692        C  0.58915644  0.78518664  0.86459668    -0.03400
C693        C  0.60193632  0.78216332  0.86870959     0.05200
C694        C  0.60191708  0.78006308  0.88622313     0.03300
H695        H  0.58526643  0.78705279  0.85191448     0.08400
H696        H  0.61018530  0.77745547  0.89414146     0.07300
N697        N  0.65382622  0.79683984  0.79929966    -0.27100
N698        N  0.66485236  0.79035354  0.79743493    -0.35000
C699        C  0.67219356  0.79629692  0.78551199     0.01200
C700        C  0.66564010  0.80715395  0.77959265     0.07300
C701        C  0.65395846  0.80720496  0.78852848    -0.05800
H702        H  0.68167980  0.79296075  0.78144956     0.07900
H703        H  0.64609341  0.81412692  0.78716480     0.09100
Cu704      Cu  0.66983894  0.77356854  0.81071493     0.44200
Cu705      Cu  0.63935674  0.79099016  0.81671920     0.42000
Cu706      Cu  0.64814861  0.76182832  0.84234871     0.43900
N707        N  0.67299818  0.75630344  0.82388879    -0.34500
N708        N  0.66486021  0.75168356  0.83551558    -0.28800
C709        C  0.66938248  0.74013846  0.84134144    -0.04900
C710        C  0.68090922  0.73744340  0.83287532     0.07400
C711        C  0.68294172  0.74794013  0.82204419     0.01200
H712        H  0.66471457  0.73424792  0.85109056     0.08800
H713        H  0.69101981  0.74934102  0.81335216     0.07900
N714        N  0.63170864  0.77324659  0.84637353    -0.35900
N715        N  0.62802077  0.78326526  0.83674767    -0.28100
C716        C  0.61660655  0.78783393  0.84284483    -0.03400
C717        C  0.61315667  0.78049617  0.85711765     0.05200
C718        C  0.62298294  0.77142975  0.85898106     0.03300
H719        H  0.61146159  0.79617063  0.83767677     0.08400
H720        H  0.62370075  0.76394991  0.86876509     0.07300
N721        N  0.65106312  0.79191161  0.21868345    -0.27100
N722        N  0.66190267  0.78511863  0.22050316    -0.35000
C723        C  0.66922284  0.79040296  0.23291493     0.01200
C724        C  0.66274218  0.80096664  0.23962231     0.07300
C725        C  0.65131199  0.80185721  0.23006845    -0.05800
H726        H  0.67889785  0.78697872  0.23645998     0.07900
H727        H  0.64384826  0.80922695  0.23120850     0.09100
Cu728      Cu  0.66694681  0.76920162  0.20593969     0.44200
Cu729      Cu  0.63715993  0.78681181  0.20005142     0.42000
Cu730      Cu  0.64671704  0.75820194  0.17262896     0.43900
N731        N  0.67152005  0.75315365  0.19135076    -0.34500
N732        N  0.66403151  0.74876563  0.17884694    -0.28800
C733        C  0.66934682  0.73776776  0.17248550    -0.04900
C734        C  0.68079150  0.73529051  0.18142107     0.07400
C735        C  0.68175323  0.74519192  0.19334196     0.01200
H736        H  0.66490687  0.73174646  0.16270428     0.08800
H737        H  0.68915949  0.74629646  0.20313219     0.07900
N738        N  0.63007214  0.76956073  0.16941652    -0.35900
N739        N  0.62629805  0.77930121  0.17940735    -0.28100
C740        C  0.61489357  0.78397930  0.17336232    -0.03400
C741        C  0.61151698  0.77703595  0.15878828     0.05200
C742        C  0.62136614  0.76805162  0.15665901     0.03300
H743        H  0.60971200  0.79216285  0.17878100     0.08400
H744        H  0.62215625  0.76089173  0.14653898     0.07300
N745        N  0.54061269  0.78649930  0.12769333    -0.27100
N746        N  0.53679368  0.78644258  0.11147009    -0.35000
C747        C  0.52375733  0.78729169  0.11081071     0.01200
C748        C  0.51898154  0.78776936  0.12735706     0.07300
C749        C  0.52996457  0.78730221  0.13780836    -0.05800
H750        H  0.51810300  0.78736237  0.09907657     0.07900
H751        H  0.53022824  0.78765043  0.15166724     0.09100
Cu752      Cu  0.54918006  0.78477973  0.09055227     0.44200
Cu753      Cu  0.56034219  0.78529505  0.13459596     0.42000
Cu754      Cu  0.58284612  0.77981732  0.09784670     0.43900
N755        N  0.56239033  0.78234351  0.07067921    -0.34500
N756        N  0.57497251  0.78053040  0.07320690    -0.28800
C757        C  0.58086030  0.77916983  0.05785299    -0.04900
C758        C  0.57144197  0.77995380  0.04509594     0.07400
C759        C  0.55989959  0.78213857  0.05374056     0.01200
H760        H  0.59116633  0.77751468  0.05610743     0.08800
H761        H  0.55037976  0.78364658  0.04814693     0.07900
N762        N  0.58828806  0.77997387  0.12362469    -0.35900
N763        N  0.58053622  0.78258315  0.13674439    -0.28100
C764        C  0.58766539  0.78231427  0.15132308    -0.03400
C765        C  0.60036698  0.77913514  0.14716621     0.05200
C766        C  0.60036780  0.77766996  0.12956205     0.03300
H767        H  0.58379364  0.78384761  0.16405251     0.08400
H768        H  0.60860064  0.77519442  0.12158814     0.07300
N769        N  0.21022458  0.55686247  0.88986487    -0.27100
N770        N  0.20950526  0.55273602  0.90593505    -0.35000
C771        C  0.20890580  0.53966304  0.90618071     0.01200
C772        C  0.20935312  0.53523785  0.88952289     0.07300
C773        C  0.21019276  0.54636384  0.87940504    -0.05800
H774        H  0.20845864  0.53377463  0.91771091     0.07900
H775        H  0.21084061  0.54679000  0.86556538     0.09100
Cu776      Cu  0.21007035  0.56459534  0.92728854     0.44200
Cu777      Cu  0.21139819  0.57672622  0.88363927     0.42000
Cu778      Cu  0.21568765  0.59836295  0.92150886     0.43900
N779        N  0.21187632  0.57723850  0.94772980    -0.34500
N780        N  0.21419065  0.58984514  0.94586737    -0.28800
C781        C  0.21518257  0.59528359  0.96158194    -0.04900
C782        C  0.21319396  0.58559713  0.97379942     0.07400
C783        C  0.21128953  0.57428731  0.96451503     0.01200
H784        H  0.21718710  0.60549018  0.96395299     0.08800
H785        H  0.20987018  0.56454953  0.96958031     0.07900
N786        N  0.21545280  0.60461511  0.89590165    -0.35900
N787        N  0.21328029  0.59707907  0.88238621    -0.28100
C788        C  0.21319447  0.60460487  0.86812986    -0.03400
C789        C  0.21567696  0.61739253  0.87287371     0.05200
C790        C  0.21710387  0.61699814  0.89051489     0.03300
H791        H  0.21185284  0.60097211  0.85522279     0.08400
H792        H  0.21908289  0.62517583  0.89888621     0.07300
N793        N  0.19894553  0.67052198  0.80614993    -0.27100
N794        N  0.20357327  0.68258190  0.80664929    -0.35000
C795        C  0.19713366  0.68998127  0.79522509     0.01200
C796        C  0.18792324  0.68234761  0.78713367     0.07300
C797        C  0.18943997  0.66998039  0.79414881    -0.05800
H798        H  0.19939232  0.70008937  0.79245491     0.07900
H799        H  0.18422570  0.66121881  0.79055100     0.09100
Cu800      Cu  0.21931411  0.68869921  0.82125354     0.44200
Cu801      Cu  0.20611367  0.65557283  0.82197441     0.42000
Cu802      Cu  0.23362908  0.66597481  0.84953551     0.43900
N803        N  0.23632021  0.69280824  0.83455388    -0.34500
N804        N  0.24195200  0.68425333  0.84485463    -0.28800
C805        C  0.25329705  0.68932470  0.85054628    -0.04900
C806        C  0.25470530  0.70176233  0.84370262     0.07400
C807        C  0.24382447  0.70355361  0.83347305     0.01200
H808        H  0.26013707  0.68425571  0.85875422     0.08800
H809        H  0.24178198  0.71183637  0.82526610     0.07900
N810        N  0.22355756  0.64833447  0.85205772    -0.35900
N811        N  0.21417373  0.64417784  0.84171254    -0.28100
C812        C  0.21016880  0.63229643  0.84713312    -0.03400
C813        C  0.21717707  0.62898864  0.86173263     0.05200
C814        C  0.22549788  0.63939508  0.86447425     0.03300
H815        H  0.20233469  0.62675509  0.84135256     0.08400
H816        H  0.23247406  0.64041598  0.87481047     0.07300
N817        N  0.21040497  0.55303864  0.13022795    -0.27100
N818        N  0.20961673  0.54919874  0.11406266    -0.35000
C819        C  0.20825449  0.53617262  0.11362546     0.01200
C820        C  0.20813922  0.53149690  0.13024471     0.07300
C821        C  0.20971638  0.54242215  0.14050381    -0.05800
H822        H  0.20811630  0.53042122  0.10200350     0.07900
H823        H  0.21079526  0.54258670  0.15431141     0.09100
Cu824      Cu  0.21212895  0.56126488  0.09289876     0.44200
Cu825      Cu  0.21332920  0.57255416  0.13701126     0.42000
Cu826      Cu  0.22176224  0.59401597  0.10041938     0.43900
N827        N  0.21613652  0.57424493  0.07310992    -0.34500
N828        N  0.21990280  0.58640800  0.07575414    -0.28800
C829        C  0.22126634  0.59245444  0.06045869    -0.04900
C830        C  0.21831979  0.58358477  0.04758634     0.07400
C831        C  0.21499938  0.57220196  0.05613906     0.01200
H832        H  0.22361133  0.60267937  0.05889919     0.08800
H833        H  0.21170674  0.56316500  0.05041919     0.07900
N834        N  0.22089892  0.59994836  0.12596300    -0.35900
N835        N  0.21724041  0.59253059  0.13904972    -0.28100
C836        C  0.21689507  0.59992466  0.15335146    -0.03400
C837        C  0.22072832  0.61248396  0.14906779     0.05200
C838        C  0.22322650  0.61210214  0.13166408     0.03300
H839        H  0.21425874  0.59637143  0.16595950     0.08400
H840        H  0.22622816  0.62017620  0.12360645     0.07300
N841        N  0.20187895  0.66535447  0.21423912    -0.27100
N842        N  0.20637258  0.67746202  0.21376376    -0.35000
C843        C  0.19934333  0.68491032  0.22437007     0.01200
C844        C  0.19000387  0.67723191  0.23214024     0.07300
C845        C  0.19181448  0.66484067  0.22535285    -0.05800
H846        H  0.20112871  0.69517682  0.22662354     0.07900
H847        H  0.18621151  0.65614855  0.22809860     0.09100
Cu848      Cu  0.22226124  0.68385937  0.19975874     0.44200
Cu849      Cu  0.20972201  0.65039756  0.19923787     0.42000
Cu850      Cu  0.23675527  0.66168429  0.17151821     0.43900
N851        N  0.23906917  0.68843248  0.18640608    -0.34500
N852        N  0.24467069  0.68009256  0.17589311    -0.28800
C853        C  0.25558358  0.68556944  0.16951045    -0.04900
C854        C  0.25692045  0.69793934  0.17649686     0.07400
C855        C  0.24619375  0.69945016  0.18700623     0.01200
H856        H  0.26194427  0.68094396  0.16033582     0.08800
H857        H  0.24384568  0.70788524  0.19471011     0.07900
N858        N  0.22755990  0.64361527  0.16962128    -0.35900
N859        N  0.21836232  0.63914950  0.17999345    -0.28100
C860        C  0.21483311  0.62709223  0.17476333    -0.03400
C861        C  0.22197501  0.62399883  0.16027444     0.05200
C862        C  0.22988400  0.63469347  0.15741358     0.03300
H863        H  0.20716085  0.62131699  0.18051207     0.08400
H864        H  0.23674406  0.63598958  0.14703498     0.07300
N865        N  0.04198073  0.73026387  0.62471192    -0.27100
N866        N  0.03777231  0.73352608  0.60922112    -0.35000
C867        C  0.02474798  0.73241620  0.60867783     0.01200
C868        C  0.02044639  0.72817352  0.62449666     0.07300
C869        C  0.03160611  0.72694235  0.63444380    -0.05800
H870        H  0.01880839  0.73460222  0.59755318     0.07900
H871        H  0.03212002  0.72406321  0.64778962     0.09100
Cu872      Cu  0.04960721  0.73939812  0.58912127     0.44200
Cu873      Cu  0.06175074  0.73122266  0.63158290     0.42000
Cu874      Cu  0.08349817  0.74231071  0.59661551     0.43900
N875        N  0.06273655  0.74381439  0.56982005    -0.34500
N876        N  0.07542066  0.74461558  0.57240606    -0.28800
C877        C  0.08138455  0.74670926  0.55726055    -0.04900
C878        C  0.07191739  0.74726348  0.54459942     0.07400
C879        C  0.06023663  0.74546421  0.55303081     0.01200
H880        H  0.09179558  0.74759968  0.55560214     0.08800
H881        H  0.05065601  0.74491044  0.54727756     0.07900
N882        N  0.08920272  0.73959308  0.62191734    -0.35900
N883        N  0.08174374  0.73506514  0.63444598    -0.28100
C884        C  0.08896917  0.73432029  0.64892356    -0.03400
C885        C  0.10140617  0.73882738  0.64530795     0.05200
C886        C  0.10115283  0.74209811  0.62813125     0.03300
H887        H  0.08533535  0.73113959  0.66126417     0.08400
H888        H  0.10913318  0.74594077  0.62060559     0.07300
N889        N  0.15441525  0.71897883  0.70984066    -0.27100
N890        N  0.16624492  0.72406576  0.71047997    -0.35000
C891        C  0.17360549  0.71705954  0.72135373     0.01200
C892        C  0.16616515  0.70696549  0.72783650     0.07300
C893        C  0.15395770  0.70858134  0.72049644    -0.05800
H894        H  0.18346156  0.71957402  0.72501558     0.07900
H895        H  0.14531415  0.70287246  0.72310187     0.09100
Cu896      Cu  0.17171737  0.74118446  0.69838087     0.44200
Cu897      Cu  0.13959583  0.72700353  0.69474341     0.42000
Cu898      Cu  0.14891976  0.75708695  0.67123896     0.43900
N899        N  0.17518371  0.75934587  0.68773053    -0.34500
N900        N  0.16676632  0.76548843  0.67776290    -0.28800
C901        C  0.17178724  0.77721642  0.67339577    -0.04900
C902        C  0.18390207  0.77846824  0.68117506     0.07400
C903        C  0.18574024  0.76689843  0.68998735     0.01200
H904        H  0.16706810  0.78415347  0.66497739     0.08800
H905        H  0.19412070  0.76421841  0.69764832     0.07900
N906        N  0.13164677  0.74669574  0.66750134    -0.35900
N907        N  0.12794152  0.73630418  0.67641159    -0.28100
C908        C  0.11628939  0.73221413  0.67043446    -0.03400
C909        C  0.11263975  0.74025958  0.65697040     0.05200
C910        C  0.12260643  0.74927364  0.65546129     0.03300
H911        H  0.11121250  0.72359971  0.67492201     0.08400
H912        H  0.12333906  0.75704925  0.64609000     0.07300
N913        N  0.03954697  0.72970251  0.39165293    -0.27100
N914        N  0.03534215  0.73449507  0.40640250    -0.35000
C915        C  0.02227931  0.73429500  0.40654768     0.01200
C916        C  0.01792245  0.72905120  0.39130611     0.07300
C917        C  0.02910989  0.72627213  0.38207417    -0.05800
H918        H  0.01635565  0.73746109  0.41720497     0.07900
H919        H  0.02964030  0.72209283  0.36936968     0.09100
Cu920      Cu  0.04688368  0.74067465  0.42667650     0.44200
Cu921      Cu  0.05936526  0.72809341  0.38529218     0.42000
Cu922      Cu  0.08052273  0.73854621  0.42046055     0.43900
N923        N  0.06002743  0.74509580  0.44601702    -0.34500
N924        N  0.07269735  0.74406537  0.44372593    -0.28800
C925        C  0.07882443  0.74627914  0.45871180    -0.04900
C926        C  0.06954252  0.74905571  0.47100148     0.07400
C927        C  0.05771082  0.74805474  0.46253201     0.01200
H928        H  0.08920655  0.74535116  0.46070365     0.08800
H929        H  0.04812441  0.74852766  0.46819140     0.07900
N930        N  0.08707596  0.73334494  0.39638331    -0.35900
N931        N  0.07975907  0.72923062  0.38347562    -0.28100
C932        C  0.08755033  0.72713366  0.36978052    -0.03400
C933        C  0.10025489  0.73028112  0.37439288     0.05200
C934        C  0.09950013  0.73414684  0.39129203     0.03300
H935        H  0.08416080  0.72412541  0.35724295     0.08400
H936        H  0.10741339  0.73755238  0.39931528     0.07300
N937        N  0.15276136  0.71416922  0.30637867    -0.27100
N938        N  0.16456126  0.71938416  0.30594872    -0.35000
C939        C  0.17151699  0.71365893  0.29353088     0.01200
C940        C  0.16378233  0.70445369  0.28563098     0.07300
C941        C  0.15194963  0.70493632  0.29408571    -0.05800
H942        H  0.18147668  0.71611182  0.29037099     0.07900
H943        H  0.14341488  0.69905768  0.29148971     0.09100
Cu944      Cu  0.17116156  0.73429110  0.32157957     0.44200
Cu945      Cu  0.13849987  0.71990040  0.32395463     0.42000
Cu946      Cu  0.15017681  0.74506014  0.35411951     0.43900
N947        N  0.17586934  0.74980847  0.33734364    -0.34500
N948        N  0.16805172  0.75397419  0.34956164    -0.28800
C949        C  0.17346250  0.76451983  0.35708054    -0.04900
C950        C  0.18522774  0.76709931  0.34905305     0.07400
C951        C  0.18646241  0.75750650  0.33672696     0.01200
H952        H  0.16913549  0.76987965  0.36753645     0.08800
H953        H  0.19435127  0.75640527  0.32768430     0.07900
N954        N  0.13208727  0.73592652  0.35534951    -0.35900
N955        N  0.12746269  0.72727910  0.34428670    -0.28100
C956        C  0.11522008  0.72399835  0.34899481    -0.03400
C957        C  0.11215419  0.73079393  0.36380992     0.05200
C958        C  0.12308130  0.73818768  0.36740599     0.03300
H959        H  0.10915739  0.71696002  0.34240105     0.08400
H960        H  0.12438748  0.74485910  0.37801156     0.07300
N961        N  0.44373612  0.78194323  0.89168835    -0.27100
N962        N  0.44755691  0.78230320  0.90791408    -0.35000
C963        C  0.46031877  0.78515533  0.90858183     0.01200
C964        C  0.46488812  0.78677481  0.89206037     0.07300
C965        C  0.45415594  0.78444629  0.88159733    -0.05800
H966        H  0.46599006  0.78559949  0.92028499     0.07900
H967        H  0.45397820  0.78444752  0.86772026     0.09100
Cu968      Cu  0.43578245  0.77804784  0.92885159     0.44200
Cu969      Cu  0.42430419  0.77797571  0.88468841     0.42000
Cu970      Cu  0.40359468  0.76696071  0.92075946     0.43900
N971        N  0.42316385  0.77249562  0.94836367    -0.34500
N972        N  0.41127765  0.76807194  0.94545011    -0.28800
C973        C  0.40541278  0.76567942  0.96060552    -0.04900
C974        C  0.41410358  0.76866984  0.97366307     0.07400
C975        C  0.42518995  0.77307489  0.96539835     0.01200
H976        H  0.39539812  0.76259256  0.96198995     0.08800
H977        H  0.43399845  0.77669797  0.97136924     0.07900
N978        N  0.39710482  0.76952083  0.89563891    -0.35900
N979        N  0.40420079  0.77405442  0.88274697    -0.28100
C980        C  0.39634671  0.77567772  0.86895396    -0.03400
C981        C  0.38382806  0.77180625  0.87336195     0.05200
C982        C  0.38474562  0.76791700  0.89031095     0.03300
H983        H  0.39951540  0.77935075  0.85662294     0.08400
H984        H  0.37687184  0.76456933  0.89841100     0.07300
N985        N  0.33162593  0.79355392  0.80693052    -0.27100
N986        N  0.32027279  0.78768664  0.80462493    -0.35000
C987        C  0.31324234  0.79435440  0.79302929     0.01200
C988        C  0.32034717  0.80506173  0.78777582     0.07300
C989        C  0.33202120  0.80428263  0.79676820    -0.05800
H990        H  0.30347893  0.79177361  0.78902902     0.07900
H991        H  0.34004752  0.81111918  0.79622128     0.09100
Cu992      Cu  0.31408437  0.77126047  0.81773955     0.44200
Cu993      Cu  0.34548773  0.78637449  0.82451309     0.42000
Cu994      Cu  0.33393006  0.75790092  0.85043337     0.43900
N995        N  0.30871349  0.75484346  0.83147784    -0.34500
N996        N  0.31601657  0.74963041  0.84365926    -0.28800
C997        C  0.30992189  0.73890937  0.84982210    -0.04900
C998        C  0.29826711  0.73740670  0.84098455     0.07400
C999        C  0.29780780  0.74772785  0.82958783     0.01200
H1000       H  0.31364249  0.73272958  0.85997649     0.08800
H1001       H  0.29011838  0.74987492  0.82050455     0.07900
N1002       N  0.35191931  0.76725206  0.85343853    -0.35900
N1003       N  0.35640497  0.77696380  0.84382550    -0.28100
C1004       C  0.36860959  0.77992223  0.84908892    -0.03400
C1005       C  0.37183622  0.77185438  0.86277343     0.05200
C1006       C  0.36100109  0.76403620  0.86517330     0.03300
H1007       H  0.37455083  0.78762457  0.84367900     0.08400
H1008       H  0.35983392  0.75643306  0.87471110     0.07300
N1009       N  0.44198790  0.78287248  0.12973331    -0.27100
N1010       N  0.44576968  0.78121717  0.11367019    -0.35000
C1011       C  0.45861865  0.78325249  0.11245674     0.01200
C1012       C  0.46338672  0.78650066  0.12839989     0.07300
C1013       C  0.45262534  0.78597861  0.13923292    -0.05800
H1014       H  0.46415706  0.78225889  0.10074458     0.07900
H1015       H  0.45255722  0.78770926  0.15291648     0.09100
Cu1016     Cu  0.43396060  0.77625903  0.09332306     0.44200
Cu1017     Cu  0.42223342  0.78058485  0.13690269     0.42000
Cu1018     Cu  0.40111935  0.77013664  0.09998924     0.43900
N1019       N  0.42151181  0.77250358  0.07318946    -0.34500
N1020       N  0.40900825  0.77014118  0.07544756    -0.28800
C1021       C  0.40326920  0.76880103  0.05995624    -0.04900
C1022       C  0.41270547  0.77056714  0.04746729     0.07400
C1023       C  0.42414903  0.77276024  0.05633501     0.01200
H1024       H  0.39298949  0.76707463  0.05792767     0.08800
H1025       H  0.43365384  0.77466962  0.05092877     0.07900
N1026       N  0.39489520  0.77263405  0.12514991    -0.35900
N1027       N  0.40195266  0.77686705  0.13829334    -0.28100
C1028       C  0.39401818  0.77799994  0.15206183    -0.03400
C1029       C  0.38153309  0.77412482  0.14732565     0.05200
C1030       C  0.38255256  0.77077736  0.13025105     0.03300
H1031       H  0.39712541  0.78123632  0.16462507     0.08400
H1032       H  0.37477294  0.76747262  0.12193407     0.07300
N1033       N  0.32849266  0.79216318  0.21374279    -0.27100
N1034       N  0.31654516  0.78732662  0.21359493    -0.35000
C1035       C  0.30928448  0.79353233  0.22526404     0.01200
C1036       C  0.31692105  0.80271622  0.23337381     0.07300
C1037       C  0.32909805  0.80165827  0.22575694    -0.05800
H1038       H  0.29912645  0.79146429  0.22772886     0.07900
H1039       H  0.33764948  0.80746421  0.22852085     0.09100
Cu1040     Cu  0.31007919  0.77245840  0.19790877     0.44200
Cu1041     Cu  0.34284459  0.78546162  0.19674646     0.42000
Cu1042     Cu  0.33087235  0.75980704  0.16639243     0.43900
N1043       N  0.30465120  0.75696643  0.18259839    -0.34500
N1044       N  0.31236519  0.75192696  0.17084460    -0.28800
C1045       C  0.30648201  0.74129745  0.16411596    -0.04900
C1046       C  0.29440211  0.73981503  0.17186622     0.07400
C1047       C  0.29369458  0.74983704  0.18364214     0.01200
H1048       H  0.31081562  0.73489410  0.15472688     0.08800
H1049       H  0.28605284  0.75144295  0.19291816     0.07900
N1050       N  0.34927079  0.76866261  0.16564906    -0.35900
N1051       N  0.35385905  0.77733606  0.17674162    -0.28100
C1052       C  0.36621502  0.78040844  0.17231725    -0.03400
C1053       C  0.36946034  0.77350099  0.15766453     0.05200
C1054       C  0.35846684  0.76623022  0.15383869     0.03300
H1055       H  0.37223082  0.78746955  0.17894146     0.08400
H1056       H  0.35722635  0.75959439  0.14318147     0.07300
N1057       N  0.28216075  0.84732146  0.71893453    -0.27100
N1058       N  0.27476218  0.83714942  0.72280180    -0.35000
C1059       C  0.28065383  0.82998637  0.73497535     0.01200
C1060       C  0.29239997  0.83576573  0.73896784     0.07300
C1061       C  0.29310653  0.84677854  0.72859009    -0.05800
H1062       H  0.27685607  0.82094004  0.74014358     0.07900
H1063       H  0.30105652  0.85369575  0.72786929     0.09100
Cu1064     Cu  0.25752162  0.83232465  0.71054888     0.44200
Cu1065     Cu  0.27677967  0.86086509  0.69998330     0.42000
Cu1066     Cu  0.24800625  0.85079207  0.67420874     0.43900
N1067       N  0.24148699  0.82746667  0.69573943    -0.34500
N1068       N  0.23789240  0.83420806  0.68206244    -0.28800
C1069       C  0.22739083  0.82841051  0.67495480    -0.04900
C1070       C  0.22439612  0.81743468  0.68459446     0.07400
C1071       C  0.23345375  0.81720883  0.69772431     0.01200
H1072       H  0.22242923  0.83181590  0.66353635     0.08800
H1073       H  0.23423175  0.81003139  0.70788293     0.07900
N1074       N  0.25914480  0.86745907  0.66974495    -0.35900
N1075       N  0.26900143  0.87152965  0.67936324    -0.28100
C1076       C  0.27340958  0.88296579  0.67295565    -0.03400
C1077       C  0.26615376  0.88604063  0.65850063     0.05200
C1078       C  0.25727687  0.87598420  0.65683129     0.03300
H1079       H  0.28158967  0.88838563  0.67806318     0.08400
H1080       H  0.24990503  0.87497036  0.64698106     0.07300
N1081       N  0.27319027  0.95709074  0.62603426    -0.27100
N1082       N  0.27300784  0.96085809  0.60978888    -0.35000
C1083       C  0.27336963  0.97394590  0.60901858     0.01200
C1084       C  0.27364967  0.97878159  0.62552751     0.07300
C1085       C  0.27354483  0.96782775  0.63607165    -0.05800
H1086       H  0.27303581  0.97957448  0.59725711     0.07900
H1087       H  0.27361055  0.96766661  0.64994534     0.09100
Cu1088     Cu  0.27124148  0.94833955  0.58910877     0.44200
Cu1089     Cu  0.27249449  0.93732372  0.63311321     0.42000
Cu1090     Cu  0.26705699  0.91435305  0.59716192     0.43900
N1091       N  0.26848153  0.93482456  0.56975498    -0.34500
N1092       N  0.26702854  0.92218635  0.57255863    -0.28800
C1093       C  0.26556019  0.91607356  0.55738180    -0.04900
C1094       C  0.26616713  0.92538045  0.54447325     0.07400
C1095       C  0.26789484  0.93713943  0.55280458     0.01200
H1096       H  0.26397258  0.90570037  0.55591805     0.08800
H1097       H  0.26877731  0.94668440  0.54694250     0.07900
N1098       N  0.26790097  0.90903071  0.62289197    -0.35900
N1099       N  0.27046149  0.91702998  0.63580579    -0.28100
C1100       C  0.27063891  0.91003381  0.65051086    -0.03400
C1101       C  0.26781319  0.89714468  0.64663747     0.05200
C1102       C  0.26608504  0.89690233  0.62906960     0.03300
H1103       H  0.27221158  0.91410964  0.66313900     0.08400
H1104       H  0.26372214  0.88848705  0.62129318     0.07300
N1105       N  0.27776904  0.83960979  0.30609529    -0.27100
N1106       N  0.27291399  0.82763618  0.30575558    -0.35000
C1107       C  0.27930836  0.82059193  0.29396400     0.01200
C1108       C  0.28861611  0.82844162  0.28640600     0.07300
C1109       C  0.28742934  0.84045423  0.29440752    -0.05800
H1110       H  0.27725287  0.81048704  0.29098649     0.07900
H1111       H  0.29314196  0.84913271  0.29192597     0.09100
Cu1112     Cu  0.25770515  0.82108824  0.32106314     0.44200
Cu1113     Cu  0.27080783  0.85403577  0.32272456     0.42000
Cu1114     Cu  0.24414460  0.84335027  0.35120293     0.43900
N1115       N  0.24224531  0.81619655  0.33696612    -0.34500
N1116       N  0.23698713  0.82443208  0.34795164    -0.28800
C1117       C  0.22671896  0.81857780  0.35553996    -0.04900
C1118       C  0.22565721  0.80596538  0.34924240     0.07400
C1119       C  0.23557270  0.80489443  0.33734761     0.01200
H1120       H  0.22035159  0.82321865  0.36470515     0.08800
H1121       H  0.23741825  0.79673173  0.32894277     0.07900
N1122       N  0.25306869  0.86167207  0.35215664    -0.35900
N1123       N  0.26231168  0.86578416  0.34160594    -0.28100
C1124       C  0.26577451  0.87803991  0.34606924    -0.03400
C1125       C  0.25853070  0.88169550  0.36023248     0.05200
C1126       C  0.25063727  0.87106914  0.36373084     0.03300
H1127       H  0.27346303  0.88360877  0.34001651     0.08400
H1128       H  0.24375077  0.87014487  0.37414576     0.07300
N1129       N  0.27016198  0.95378684  0.38705231    -0.27100
N1130       N  0.27165292  0.95782202  0.40305000    -0.35000
C1131       C  0.27259410  0.97088546  0.40325982     0.01200
C1132       C  0.27157550  0.97543097  0.38665318     0.07300
C1133       C  0.27004082  0.96435067  0.37662019    -0.05800
H1134       H  0.27337891  0.97670958  0.41477786     0.07900
H1135       H  0.26858885  0.96402055  0.36287766     0.09100
Cu1136     Cu  0.27081173  0.94592315  0.42442641     0.44200
Cu1137     Cu  0.26750168  0.93398435  0.38093642     0.42000
Cu1138     Cu  0.26118104  0.91295744  0.41871361     0.43900
N1139       N  0.26731640  0.93348025  0.44476059    -0.34500
N1140       N  0.26360458  0.92121952  0.44285952    -0.28800
C1141       C  0.26177391  0.91587776  0.45850220    -0.04900
C1142       C  0.26427601  0.92536987  0.47070044     0.07400
C1143       C  0.26790238  0.93633022  0.46154490     0.01200
H1144       H  0.25871047  0.90592049  0.46081257     0.08800
H1145       H  0.27073087  0.94571470  0.46669260     0.07900
N1146       N  0.26071606  0.90662995  0.39337030    -0.35900
N1147       N  0.26367243  0.91382646  0.37976709    -0.28100
C1148       C  0.26341135  0.90610193  0.36573966    -0.03400
C1149       C  0.25989074  0.89358510  0.37078191     0.05200
C1150       C  0.25820812  0.89434302  0.38832155     0.03300
H1151       H  0.26548603  0.90937689  0.35282284     0.08400
H1152       H  0.25574660  0.88640869  0.39692018     0.07300
N1153       N  0.44240648  0.23010473  0.88396481    -0.27100
N1154       N  0.44606612  0.22735665  0.89986134    -0.35000
C1155       C  0.45908483  0.22631989  0.90049333     0.01200
C1156       C  0.46403019  0.22863226  0.88432322     0.07300
C1157       C  0.45318902  0.23107511  0.87409704    -0.05800
H1158       H  0.46463884  0.22487092  0.91215554     0.07900
H1159       H  0.45318694  0.23387335  0.86070473     0.09100
Cu1160     Cu  0.43381360  0.22717009  0.92096287     0.44200
Cu1161     Cu  0.42273404  0.23308138  0.87737977     0.42000
Cu1162     Cu  0.40134158  0.23758212  0.91500980     0.43900
N1163       N  0.42103135  0.22972672  0.94121752    -0.34500
N1164       N  0.40898589  0.23390010  0.93909570    -0.28800
C1165       C  0.40326933  0.23503002  0.95454937    -0.04900
C1166       C  0.41214229  0.23120117  0.96695055     0.07400
C1167       C  0.42334288  0.22808376  0.95806146     0.01200
H1168       H  0.39343484  0.23842333  0.95660480     0.08800
H1169       H  0.43261072  0.22518742  0.96346130     0.07900
N1170       N  0.39509179  0.23796513  0.88977250    -0.35900
N1171       N  0.40241083  0.23566096  0.87614547    -0.28100
C1172       C  0.39462735  0.23545587  0.86214261    -0.03400
C1173       C  0.38196298  0.23797948  0.86729449     0.05200
C1174       C  0.38267125  0.23957036  0.88481742     0.03300
H1175       H  0.39795314  0.23378773  0.84917637     0.08400
H1176       H  0.37465572  0.24138339  0.89346064     0.07300
N1177       N  0.32908997  0.22047506  0.80102955    -0.27100
N1178       N  0.31806881  0.22681545  0.79830470    -0.35000
C1179       C  0.31087910  0.22019225  0.78682510     0.01200
C1180       C  0.31760278  0.20910799  0.78216577     0.07300
C1181       C  0.32919280  0.20963707  0.79123646    -0.05800
H1182       H  0.30150382  0.22332467  0.78200511     0.07900
H1183       H  0.33711185  0.20271530  0.79070488     0.09100
Cu1184     Cu  0.31307106  0.24431554  0.80991459     0.44200
Cu1185     Cu  0.34327399  0.22698382  0.81815589     0.42000
Cu1186     Cu  0.33319970  0.25515610  0.84426120     0.43900
N1187       N  0.30940574  0.26137637  0.82335862    -0.34500
N1188       N  0.31664475  0.26534566  0.83638925    -0.28800
C1189       C  0.31168370  0.27659020  0.84250799    -0.04900
C1190       C  0.30091876  0.27987886  0.83266522     0.07400
C1191       C  0.29971465  0.26996570  0.82076201     0.01200
H1192       H  0.31566612  0.28201584  0.85319604     0.08800
H1193       H  0.29226773  0.26901673  0.81100062     0.07900
N1194       N  0.35049201  0.24477411  0.84763981    -0.35900
N1195       N  0.35453524  0.23518152  0.83763449    -0.28100
C1196       C  0.36651853  0.23145493  0.84275683    -0.03400
C1197       C  0.37006290  0.23891520  0.85678388     0.05200
C1198       C  0.35965146  0.24715331  0.85959405     0.03300
H1199       H  0.37205615  0.22363940  0.83702172     0.08400
H1200       H  0.35887883  0.25451395  0.86946306     0.07300
N1201       N  0.44496419  0.23141521  0.12279138    -0.27100
N1202       N  0.44892378  0.23102333  0.10666787    -0.35000
C1203       C  0.46195259  0.23016941  0.10641398     0.01200
C1204       C  0.46656333  0.23010908  0.12311884     0.07300
C1205       C  0.45547171  0.23084113  0.13322155    -0.05800
H1206       H  0.46771929  0.22955673  0.09482444     0.07900
H1207       H  0.45496818  0.23055022  0.14707477     0.09100
Cu1208     Cu  0.43671012  0.23162466  0.08537176     0.44200
Cu1209     Cu  0.42530688  0.23248203  0.12941644     0.42000
Cu1210     Cu  0.40325390  0.23874127  0.09314284     0.43900
N1211       N  0.42309740  0.23369769  0.06579195    -0.34500
N1212       N  0.41077976  0.23668624  0.06858780    -0.28800
C1213       C  0.40447704  0.23743218  0.05343082    -0.04900
C1214       C  0.41330323  0.23482924  0.04050816     0.07400
C1215       C  0.42496637  0.23239932  0.04880922     0.01200
H1216       H  0.39419428  0.23940802  0.05198321     0.08800
H1217       H  0.43413947  0.22987415  0.04291678     0.07900
N1218       N  0.39744528  0.23778653  0.11864440    -0.35900
N1219       N  0.40518148  0.23478095  0.13167832    -0.28100
C1220       C  0.39798289  0.23404592  0.14609671    -0.03400
C1221       C  0.38520297  0.23695070  0.14193871     0.05200
C1222       C  0.38524306  0.23932654  0.12448086     0.03300
H1223       H  0.40182013  0.23186523  0.15872050     0.08400
H1224       H  0.37694491  0.24174128  0.11651166     0.07300
N1225       N  0.33707749  0.21962549  0.21465242    -0.27100
N1226       N  0.32656042  0.22641855  0.21847371    -0.35000
C1227       C  0.31946125  0.21983811  0.23003548     0.01200
C1228       C  0.32574280  0.20832046  0.23390697     0.07300
C1229       C  0.33690036  0.20841654  0.22385993    -0.05800
H1230       H  0.31006932  0.22294996  0.23473416     0.07900
H1231       H  0.34396150  0.20066468  0.22266170     0.09100
Cu1232     Cu  0.32105778  0.24350222  0.20649290     0.44200
Cu1233     Cu  0.35004009  0.22589516  0.19556446     0.42000
Cu1234     Cu  0.33781754  0.25360418  0.16904712     0.43900
N1235       N  0.31515735  0.25918737  0.19183172    -0.34500
N1236       N  0.32118701  0.26297976  0.17771970    -0.28800
C1237       C  0.31472380  0.27318775  0.17088301    -0.04900
C1238       C  0.30409684  0.27575536  0.18120730     0.07400
C1239       C  0.30471447  0.26677305  0.19438783     0.01200
H1240       H  0.31745827  0.27824305  0.15922914     0.08800
H1241       H  0.29797732  0.26571923  0.20494833     0.07900
N1242       N  0.35496823  0.24344603  0.16457672    -0.35900
N1243       N  0.35978730  0.23407777  0.17447252    -0.28100
C1244       C  0.37144149  0.23045716  0.16814652    -0.03400
C1245       C  0.37389793  0.23770623  0.15347835     0.05200
C1246       C  0.36324313  0.24576632  0.15157904     0.03300
H1247       H  0.37751185  0.22287133  0.17356355     0.08400
H1248       H  0.36170527  0.25298206  0.14161734     0.07300
N1249       N  0.26617148  0.05568638  0.62492847    -0.27100
N1250       N  0.26601266  0.05183362  0.60874411    -0.35000
C1251       C  0.26782006  0.03888305  0.60806320     0.01200
C1252       C  0.26923545  0.03420075  0.62455816     0.07300
C1253       C  0.26801496  0.04508289  0.63503974    -0.05800
H1254       H  0.26812588  0.03325948  0.59634036     0.07900
H1255       H  0.26865279  0.04529794  0.64889084     0.09100
Cu1256     Cu  0.26336726  0.06399986  0.58785945     0.44200
Cu1257     Cu  0.26429953  0.07551166  0.63151588     0.42000
Cu1258     Cu  0.25647275  0.09747454  0.59465449     0.43900
N1259       N  0.26010031  0.07685269  0.56786089    -0.34500
N1260       N  0.25728356  0.08930210  0.57009637    -0.28800
C1261       C  0.25598034  0.09501470  0.55454751    -0.04900
C1262       C  0.25803885  0.08561544  0.54204500     0.07400
C1263       C  0.26071683  0.07428329  0.55099493     0.01200
H1264       H  0.25411369  0.10528519  0.55251959     0.08800
H1265       H  0.26308732  0.06486337  0.54561635     0.07900
N1266       N  0.25866828  0.10351164  0.62016381    -0.35900
N1267       N  0.26217387  0.09592147  0.63318678    -0.28100
C1268       C  0.26372787  0.10342843  0.64728800    -0.03400
C1269       C  0.26083854  0.11624617  0.64301064     0.05200
C1270       C  0.25758522  0.11587813  0.62578371     0.03300
H1271       H  0.26644850  0.09977829  0.65982983     0.08400
H1272       H  0.25488265  0.12409257  0.61778892     0.07300
N1273       N  0.28318617  0.16982354  0.70750216    -0.27100
N1274       N  0.27727618  0.18121569  0.70906340    -0.35000
C1275       C  0.28364744  0.18860222  0.72052085     0.01200
C1276       C  0.29418140  0.18169847  0.72657076     0.07300
C1277       C  0.29359854  0.16973571  0.71819964    -0.05800
H1278       H  0.28051326  0.19815449  0.72468884     0.07900
H1279       H  0.30001573  0.16150383  0.72010781     0.09100
Cu1280     Cu  0.25998414  0.18625595  0.69744634     0.44200
Cu1281     Cu  0.27582619  0.15509425  0.69116836     0.42000
Cu1282     Cu  0.24410591  0.16362203  0.67070961     0.43900
N1283       N  0.24165350  0.18958965  0.68768410    -0.34500
N1284       N  0.23543472  0.18112676  0.67789382    -0.28800
C1285       C  0.22355416  0.18593404  0.67410974    -0.04900
C1286       C  0.22231116  0.19797747  0.68206255     0.07400
C1287       C  0.23402316  0.19998372  0.69040414     0.01200
H1288       H  0.21650752  0.18111933  0.66597177     0.08800
H1289       H  0.23673263  0.20833248  0.69810853     0.07900
N1290       N  0.25481824  0.14683930  0.66548733    -0.35900
N1291       N  0.26583201  0.14334567  0.67311808    -0.28100
C1292       C  0.26956005  0.13169389  0.66666913    -0.03400
C1293       C  0.26060876  0.12786529  0.65426353     0.05200
C1294       C  0.25149400  0.13774146  0.65384578     0.03300
H1295       H  0.27836079  0.12660051  0.67030553     0.08400
H1296       H  0.24296579  0.13825058  0.64569573     0.07300
N1297       N  0.26958435  0.05247242  0.38655830    -0.27100
N1298       N  0.26667956  0.04835952  0.40220942    -0.35000
C1299       C  0.26634155  0.03526720  0.40237678     0.01200
C1300       C  0.26923136  0.03082195  0.38615304     0.07300
C1301       C  0.27124618  0.04196328  0.37635874    -0.05800
H1302       H  0.26435563  0.02937439  0.41361663     0.07900
H1303       H  0.27374933  0.04240156  0.36289726     0.09100
Cu1304     Cu  0.26362852  0.06025340  0.42328218     0.44200
Cu1305     Cu  0.27085248  0.07230879  0.38014692     0.42000
Cu1306     Cu  0.26251053  0.09420990  0.41589908     0.43900
N1307       N  0.26134771  0.07356787  0.44300834    -0.34500
N1308       N  0.26078976  0.08627931  0.44028101    -0.28800
C1309       C  0.25982766  0.09244827  0.45546242    -0.04900
C1310       C  0.25988973  0.08312129  0.46832129     0.07400
C1311       C  0.26080553  0.07126371  0.45998733     0.01200
H1312       H  0.25956137  0.10292835  0.45704935     0.08800
H1313       H  0.26135774  0.06169814  0.46585204     0.07900
N1314       N  0.26592662  0.10025289  0.39089174    -0.35900
N1315       N  0.26952222  0.09265479  0.37803687    -0.28100
C1316       C  0.27110340  0.10012416  0.36387461    -0.03400
C1317       C  0.26815681  0.11291771  0.36806682     0.05200
C1318       C  0.26489604  0.11258575  0.38522737     0.03300
H1319       H  0.27365704  0.09644052  0.35133537     0.08400
H1320       H  0.26192720  0.12074326  0.39307328     0.07300
N1321       N  0.28607679  0.16581134  0.30060713    -0.27100
N1322       N  0.28021284  0.17727611  0.29956298    -0.35000
C1323       C  0.28589583  0.18450089  0.28731216     0.01200
C1324       C  0.29576295  0.17732598  0.28004607     0.07300
C1325       C  0.29579331  0.16555365  0.28892623    -0.05800
H1326       H  0.28310340  0.19437436  0.28402267     0.07900
H1327       H  0.30235024  0.15744585  0.28702960     0.09100
Cu1328     Cu  0.26470472  0.18329473  0.31440731     0.44200
Cu1329     Cu  0.28016189  0.15132064  0.31809427     0.42000
Cu1330     Cu  0.25218097  0.16163159  0.34492485     0.43900
N1331       N  0.24873103  0.18790956  0.32926463    -0.34500
N1332       N  0.24383065  0.17972665  0.34064807    -0.28800
C1333       C  0.23314575  0.18509100  0.34767735    -0.04900
C1334       C  0.23142327  0.19735950  0.34052312     0.07400
C1335       C  0.24138097  0.19872713  0.32873249     0.01200
H1336       H  0.22700042  0.18036257  0.35708639     0.08800
H1337       H  0.24287964  0.20675210  0.31990716     0.07900
N1338       N  0.26187787  0.14400146  0.34719797    -0.35900
N1339       N  0.27158274  0.13987927  0.33746219    -0.28100
C1340       C  0.27513789  0.12786420  0.34291827    -0.03400
C1341       C  0.26743241  0.12448923  0.35684115     0.05200
C1342       C  0.25921486  0.13494614  0.35915085     0.03300
H1343       H  0.28306462  0.12225339  0.33761339     0.08400
H1344       H  0.25183312  0.13596183  0.36892960     0.07300
N1345       N  0.21039039  0.45842498  0.89023980    -0.27100
N1346       N  0.21173067  0.46266169  0.90616675    -0.35000
C1347       C  0.21127207  0.47573241  0.90627160     0.01200
C1348       C  0.20952269  0.48003077  0.88967004     0.07300
C1349       C  0.20902683  0.46884394  0.87972366    -0.05800
H1350       H  0.21235495  0.48170351  0.91761634     0.07900
H1351       H  0.20798880  0.46832566  0.86592765     0.09100
Cu1352     Cu  0.21511978  0.45099922  0.92730494     0.44200
Cu1353     Cu  0.21137575  0.43859123  0.88411350     0.42000
Cu1354     Cu  0.22257140  0.41788681  0.92021611     0.43900
N1355       N  0.22027514  0.43848684  0.94691509    -0.34500
N1356       N  0.22326192  0.42612974  0.94435586    -0.28800
C1357       C  0.22563269  0.42038428  0.95959075    -0.04900
C1358       C  0.22421687  0.42969147  0.97227672     0.07400
C1359       C  0.22066708  0.44099612  0.96379522     0.01200
H1360       H  0.22752458  0.41008698  0.96133598     0.08800
H1361       H  0.21810327  0.45024023  0.96953156     0.07900
N1362       N  0.21944264  0.41141759  0.89545036    -0.35900
N1363       N  0.21484670  0.41851634  0.88257281    -0.28100
C1364       C  0.21359724  0.41078811  0.86868094    -0.03400
C1365       C  0.21779070  0.39837647  0.87306534     0.05200
C1366       C  0.22143337  0.39916137  0.89006167     0.03300
H1367       H  0.21024925  0.41404892  0.85621667     0.08400
H1368       H  0.22518287  0.39135721  0.89803019     0.07300
N1369       N  0.20380596  0.34940239  0.80088412    -0.27100
N1370       N  0.21139095  0.33952563  0.79665493    -0.35000
C1371       C  0.20545902  0.33238217  0.78454815     0.01200
C1372       C  0.19361550  0.33804290  0.78081753     0.07300
C1373       C  0.19273972  0.34872404  0.79158065    -0.05800
H1374       H  0.20920424  0.32332036  0.77947952     0.07900
H1375       H  0.18454607  0.35524738  0.79292554     0.09100
Cu1376     Cu  0.22863454  0.33481654  0.80887209     0.44200
Cu1377     Cu  0.20872638  0.36241579  0.82020120     0.42000
Cu1378     Cu  0.23556102  0.35057986  0.84813183     0.43900
N1379       N  0.24404571  0.32938221  0.82440078    -0.34500
N1380       N  0.24650564  0.33485957  0.83938150    -0.28800
C1381       C  0.25694889  0.32897049  0.84650850    -0.04900
C1382       C  0.26115700  0.31929086  0.83541211     0.07400
C1383       C  0.25279997  0.31993753  0.82151333     0.01200
H1384       H  0.26132229  0.33176597  0.85858751     0.08800
H1385       H  0.25303733  0.31391461  0.81013862     0.07900
N1386       N  0.22495781  0.36764765  0.85191768    -0.35900
N1387       N  0.21587144  0.37228296  0.84147620    -0.28100
C1388       C  0.21195742  0.38401423  0.84724456    -0.03400
C1389       C  0.21876977  0.38677111  0.86211379     0.05200
C1390       C  0.22685466  0.37619244  0.86472805     0.03300
H1391       H  0.20457405  0.38998282  0.84119328     0.08400
H1392       H  0.23386214  0.37492766  0.87498380     0.07300
N1393       N  0.21561135  0.45498736  0.12935260    -0.27100
N1394       N  0.21703396  0.45933451  0.11348719    -0.35000
C1395       C  0.21644026  0.47239646  0.11337321     0.01200
C1396       C  0.21466880  0.47659581  0.12996809     0.07300
C1397       C  0.21407989  0.46533366  0.13986816    -0.05800
H1398       H  0.21715756  0.47841476  0.10198241     0.07900
H1399       H  0.21259836  0.46470988  0.15358038     0.09100
Cu1400     Cu  0.21950859  0.44758945  0.09241763     0.44200
Cu1401     Cu  0.21586182  0.43499778  0.13487614     0.42000
Cu1402     Cu  0.22208551  0.41324885  0.09738285     0.43900
N1403       N  0.22130170  0.43510920  0.07197834    -0.34500
N1404       N  0.22222098  0.42230569  0.07349162    -0.28800
C1405       C  0.22276867  0.41704491  0.05767094    -0.04900
C1406       C  0.22200241  0.42711125  0.04581588     0.07400
C1407       C  0.22125216  0.43839432  0.05532280     0.01200
H1408       H  0.22342259  0.40671239  0.05500559     0.08800
H1409       H  0.22059601  0.44828377  0.05050471     0.07900
N1410       N  0.22063006  0.40713532  0.12278771    -0.35900
N1411       N  0.21777261  0.41468111  0.13604074    -0.28100
C1412       C  0.21734821  0.40724217  0.15032749    -0.03400
C1413       C  0.22032356  0.39454297  0.14587714     0.05200
C1414       C  0.22238958  0.39484130  0.12838580     0.03300
H1415       H  0.21560015  0.41091979  0.16311189     0.08400
H1416       H  0.22502509  0.38670782  0.12029219     0.07300
N1417       N  0.20460309  0.34198658  0.21350612    -0.27100
N1418       N  0.21072486  0.33069158  0.21485409    -0.35000
C1419       C  0.20450277  0.32306609  0.22618459     0.01200
C1420       C  0.19383601  0.32973067  0.23222668     0.07300
C1421       C  0.19423955  0.34180718  0.22414531    -0.05800
H1422       H  0.20768443  0.31342758  0.23002356     0.07900
H1423       H  0.18756612  0.34983640  0.22591446     0.09100
Cu1424     Cu  0.22753957  0.32584196  0.20202404     0.44200
Cu1425     Cu  0.21104028  0.35671596  0.19690893     0.42000
Cu1426     Cu  0.24073902  0.34822371  0.17223994     0.43900
N1427       N  0.24472421  0.32239108  0.18926274    -0.34500
N1428       N  0.24988218  0.33075801  0.17829565    -0.28800
C1429       C  0.26125348  0.32591882  0.17259015    -0.04900
C1430       C  0.26327344  0.31395614  0.18047764     0.07400
C1431       C  0.25256598  0.31199519  0.19083105     0.01200
H1432       H  0.26751978  0.33072314  0.16339265     0.08800
H1433       H  0.25073718  0.30373242  0.19916297     0.07900
N1434       N  0.22947136  0.36477311  0.16826907    -0.35900
N1435       N  0.21921409  0.36821651  0.17747057    -0.28100
C1436       C  0.21454923  0.37958032  0.17124042    -0.03400
C1437       C  0.22207253  0.38325176  0.15732892     0.05200
C1438       C  0.23137826  0.37364727  0.15579324     0.03300
H1439       H  0.20600217  0.38450819  0.17602864     0.08400
H1440       H  0.23900765  0.37313187  0.14627857     0.07300
N1441       N  0.04121226  0.28068828  0.63147579    -0.27100
N1442       N  0.03748202  0.28006065  0.61524334    -0.35000
C1443       C  0.02448087  0.28112362  0.61442424     0.01200
C1444       C  0.01972136  0.28234963  0.63089431     0.07300
C1445       C  0.03059297  0.28212366  0.64144294    -0.05800
H1446       H  0.01888615  0.28122856  0.60264039     0.07900
H1447       H  0.03083093  0.28334381  0.65521847     0.09100
Cu1448     Cu  0.05000394  0.27816134  0.59459578     0.44200
Cu1449     Cu  0.06070238  0.28003230  0.63882642     0.42000
Cu1450     Cu  0.08341243  0.27248520  0.60372262     0.43900
N1451       N  0.06384822  0.27558143  0.57562720    -0.34500
N1452       N  0.07624439  0.27325573  0.57890603    -0.28800
C1453       C  0.08273522  0.27224084  0.56397175    -0.04900
C1454       C  0.07390095  0.27379838  0.55069053     0.07400
C1455       C  0.06208864  0.27612738  0.55856452     0.01200
H1456       H  0.09310547  0.27065998  0.56286822     0.08800
H1457       H  0.05293794  0.27841668  0.55236901     0.07900
N1458       N  0.08865424  0.27449047  0.62924458    -0.35900
N1459       N  0.08073846  0.27790202  0.64182834    -0.28100
C1460       C  0.08769046  0.27889354  0.65646415    -0.03400
C1461       C  0.10047375  0.27572564  0.65287038     0.05200
C1462       C  0.10071487  0.27296126  0.63556845     0.03300
H1463       H  0.08365066  0.28125896  0.66887367     0.08400
H1464       H  0.10907488  0.27010198  0.62806166     0.07300
N1465       N  0.14952432  0.29244297  0.72404514    -0.27100
N1466       N  0.16062402  0.28626018  0.72681564    -0.35000
C1467       C  0.16801980  0.29331609  0.73752648     0.01200
C1468       C  0.16130276  0.30444754  0.74184529     0.07300
C1469       C  0.14961956  0.30368997  0.73301140    -0.05800
H1470       H  0.17788219  0.29085721  0.74119008     0.07900
H1471       H  0.14211344  0.31105944  0.73236612     0.09100
Cu1472     Cu  0.16651315  0.26944505  0.71458448     0.44200
Cu1473     Cu  0.13571750  0.28589255  0.70646494     0.42000
Cu1474     Cu  0.14725094  0.25808280  0.68045204     0.43900
N1475       N  0.17184048  0.25357493  0.69997044    -0.34500
N1476       N  0.16465802  0.24920669  0.68713899    -0.28800
C1477       C  0.17070545  0.23895969  0.67990344    -0.04900
C1478       C  0.18233042  0.23697887  0.68852900     0.07400
C1479       C  0.18267523  0.24632603  0.70126043     0.01200
H1480       H  0.16702286  0.23349927  0.66906060     0.08800
H1481       H  0.19024764  0.24777519  0.71073972     0.07900
N1482       N  0.13013631  0.26830175  0.67621486    -0.35900
N1483       N  0.12556104  0.27784400  0.68589344    -0.28100
C1484       C  0.11406084  0.28182473  0.67937871    -0.03400
C1485       C  0.11147917  0.27457602  0.66481021     0.05200
C1486       C  0.12185759  0.26617239  0.66317356     0.03300
H1487       H  0.10827599  0.28970991  0.68449436     0.08400
H1488       H  0.12328612  0.25896615  0.65323828     0.07300
N1489       N  0.04810707  0.28215442  0.39485608    -0.27100
N1490       N  0.04421203  0.28327786  0.41094145    -0.35000
C1491       C  0.03115500  0.28334259  0.41142248     0.01200
C1492       C  0.02649363  0.28210129  0.39489813     0.07300
C1493       C  0.03748566  0.28141016  0.38462062    -0.05800
H1494       H  0.02544233  0.28410299  0.42301696     0.07900
H1495       H  0.03774129  0.28044380  0.37080925     0.09100
Cu1496     Cu  0.05658323  0.28410172  0.43187093     0.44200
Cu1497     Cu  0.06789911  0.28146664  0.38845339     0.42000
Cu1498     Cu  0.09054610  0.27864493  0.42549151     0.43900
N1499       N  0.06978445  0.28304760  0.45187659    -0.34500
N1500       N  0.08234551  0.28084356  0.44980576    -0.28800
C1501       C  0.08794878  0.27959849  0.46540715    -0.04900
C1502       C  0.07842190  0.28124883  0.47780566     0.07400
C1503       C  0.06704395  0.28326649  0.46870373     0.01200
H1504       H  0.09801051  0.27694453  0.46751941     0.08800
H1505       H  0.05735089  0.28418787  0.47394535     0.07900
N1506       N  0.09606583  0.27763631  0.39973217    -0.35900
N1507       N  0.08813993  0.27938410  0.38647589    -0.28100
C1508       C  0.09513592  0.27867597  0.37188128    -0.03400
C1509       C  0.10796295  0.27607777  0.37613579     0.05200
C1510       C  0.10817717  0.27543457  0.39385818     0.03300
H1511       H  0.09109659  0.27952446  0.35909381     0.08400
H1512       H  0.11657296  0.27362865  0.40192852     0.07300
N1513       N  0.15881116  0.29166731  0.30716476    -0.27100
N1514       N  0.17063059  0.28662154  0.30632455    -0.35000
C1515       C  0.17776556  0.29350068  0.29505275     0.01200
C1516       C  0.17014767  0.30340807  0.28849646     0.07300
C1517       C  0.15812253  0.30190367  0.29626425    -0.05800
H1518       H  0.18765496  0.29118553  0.29144863     0.07900
H1519       H  0.14948566  0.30767110  0.29396542     0.09100
Cu1520     Cu  0.17647358  0.27001097  0.31935624     0.44200
Cu1521     Cu  0.14442508  0.28419961  0.32340906     0.42000
Cu1522     Cu  0.15453527  0.25596426  0.34966098     0.43900
N1523       N  0.18018344  0.25259402  0.33191019    -0.34500
N1524       N  0.17211171  0.24717480  0.34302338    -0.28800
C1525       C  0.17738636  0.23593212  0.34879229    -0.04900
C1526       C  0.18930124  0.23421978  0.34075909     0.07400
C1527       C  0.19076438  0.24503710  0.33030439     0.01200
H1528       H  0.17304747  0.22973580  0.35847161     0.08800
H1529       H  0.19898692  0.24727967  0.32215986     0.07900
N1530       N  0.13753814  0.26668421  0.35354593    -0.35900
N1531       N  0.13346856  0.27632606  0.34353510    -0.28100
C1532       C  0.12208475  0.28086458  0.34967911    -0.03400
C1533       C  0.11901451  0.27395251  0.36442001     0.05200
C1534       C  0.12903548  0.26510157  0.36650513     0.03300
H1535       H  0.11677546  0.28902254  0.34430638     0.08400
H1536       H  0.13009643  0.25803278  0.37675136     0.07300
C1537       C  0.08458665  0.28439600  0.52584100    -0.05600
C1538       C  0.07655618  0.27436133  0.53207222     0.00300
C1539       C  0.07053132  0.26565806  0.52042050    -0.08200
C1540       C  0.07188286  0.26798481  0.50273773    -0.05600
C1541       C  0.07918734  0.27853805  0.49645324     0.00300
C1542       C  0.08593948  0.28673104  0.50809408    -0.08200
C1543       C  0.09376384  0.29838246  0.50188184     0.62200
H1544       H  0.08921433  0.29083485  0.53502688     0.12900
H1545       H  0.06695724  0.26172534  0.49360078     0.12900
C1546       C  0.06296655  0.25380375  0.52662544     0.62500
F1547       F  0.09975990  0.30488942  0.51531020    -0.22700
F1548       F  0.08560470  0.30705069  0.49353708    -0.20000
F1549       F  0.10335216  0.29435001  0.49070719    -0.19700
F1550       F  0.05184089  0.25764070  0.53511013    -0.19800
F1551       F  0.07066221  0.24654193  0.53765715    -0.20100
F1552       F  0.05923844  0.24582571  0.51316860    -0.22800
C1553       C  0.18694794  0.32982354  0.26257322    -0.05600
C1554       C  0.18509786  0.32500093  0.24592309     0.00300
C1555       C  0.17652571  0.31437020  0.24317039    -0.08200
C1556       C  0.17098640  0.30808263  0.25747124    -0.05600
C1557       C  0.17381632  0.31215487  0.27421436     0.00300
C1558       C  0.18142683  0.32349336  0.27688595    -0.08200
C1559       C  0.18403030  0.32853382  0.29483643     0.62200
H1560       H  0.19346530  0.33803321  0.26437920     0.12900
H1561       H  0.16499180  0.29947334  0.25573434     0.12900
C1562       C  0.17344372  0.30959890  0.22519809     0.62500
F1563       F  0.19061792  0.34033585  0.29459123    -0.22700
F1564       F  0.19146458  0.31960152  0.30384762    -0.20000
F1565       F  0.17235339  0.33035363  0.30328009    -0.19700
F1566       F  0.18441082  0.30420443  0.21787590    -0.19800
F1567       F  0.16926755  0.31996232  0.21521133    -0.20100
F1568       F  0.16372545  0.30021700  0.22524820    -0.22800
C1569       C  0.17259019  0.32649989  0.77765827    -0.05600
C1570       C  0.18347867  0.33223621  0.76980411     0.00300
C1571       C  0.18542151  0.33076360  0.75196463    -0.08200
C1572       C  0.17714819  0.32235836  0.74283036    -0.05600
C1573       C  0.16703001  0.31561896  0.75101276     0.00300
C1574       C  0.16424461  0.31812612  0.76843988    -0.08200
C1575       C  0.15289151  0.31148849  0.77730237     0.62200
H1576       H  0.17118150  0.32793861  0.79129094     0.12900
H1577       H  0.17898950  0.32037886  0.72940474     0.12900
C1578       C  0.19632115  0.33788029  0.74271927     0.62500
F1579       F  0.15177048  0.31533743  0.79424616    -0.22700
F1580       F  0.15451938  0.29809712  0.77698106    -0.20000
F1581       F  0.14145833  0.31466286  0.76888841    -0.19700
F1582       F  0.20823753  0.33295360  0.74777532    -0.19800
F1583       F  0.19581941  0.35104007  0.74656258    -0.20100
F1584       F  0.19530854  0.33657033  0.72509037    -0.22800
C1585       C  0.21190007  0.42976410  0.99921413    -0.05600
C1586       C  0.22380811  0.42763034  0.99098465     0.00300
C1587       C  0.23501969  0.42454582  0.00076265    -0.08200
C1588       C  0.23387437  0.42371160  0.01873129    -0.05600
C1589       C  0.22204884  0.42632005  0.02695894     0.00300
C1590       C  0.21082071  0.42925865  0.01714311    -0.08200
C1591       C  0.19778032  0.43190225  0.02556109     0.62200
H1592       H  0.20348432  0.43216590  0.99142884     0.12900
H1593       H  0.24234104  0.42163364  0.02657783     0.12900
C1594       C  0.24823275  0.42302117  0.99235903     0.62500
F1595       F  0.18790413  0.43327631  0.01357376    -0.22700
F1596       F  0.19843279  0.44329270  0.03497016    -0.20000
F1597       F  0.19455480  0.42164885  0.03632407    -0.19700
F1598       F  0.25141465  0.43438911  0.98370421    -0.19800
F1599       F  0.24794957  0.41276889  0.98089277    -0.20100
F1600       F  0.25793270  0.42053788  0.00428542    -0.22800
C1601       C  0.21165756  0.22796072  0.34872088    -0.05600
C1602       C  0.19922858  0.22392702  0.34340755     0.00300
C1603       C  0.19712547  0.21069598  0.33887305    -0.08200
C1604       C  0.20783541  0.20211397  0.33886178    -0.05600
C1605       C  0.22041037  0.20641791  0.34309381     0.00300
C1606       C  0.22230556  0.21937065  0.34884723    -0.08200
C1607       C  0.23546583  0.22407025  0.35526697     0.62200
H1608       H  0.21304341  0.23807818  0.35230712     0.12900
H1609       H  0.20658809  0.19208115  0.33482857     0.12900
C1610       C  0.18382990  0.20580963  0.33327450     0.62500
F1611       F  0.23463111  0.23621645  0.36291593    -0.22700
F1612       F  0.24409924  0.22500777  0.34176695    -0.20000
F1613       F  0.24028657  0.21539827  0.36733248    -0.19700
F1614       F  0.17949937  0.21297346  0.31933022    -0.19800
F1615       F  0.17510039  0.20706557  0.34661368    -0.20100
F1616       F  0.18411219  0.19278819  0.32858964    -0.22800
C1617       C  0.18940243  0.21396446  0.68980436    -0.05600
C1618       C  0.19223861  0.22689412  0.68522521     0.00300
C1619       C  0.20454723  0.23005279  0.67826383    -0.08200
C1620       C  0.21390423  0.22013561  0.67678803    -0.05600
C1621       C  0.21125630  0.20723966  0.68183766     0.00300
C1622       C  0.19876566  0.20400463  0.68831916    -0.08200
C1623       C  0.19543152  0.19026124  0.69417431     0.62200
H1624       H  0.17984985  0.21180452  0.69494231     0.12900
H1625       H  0.22351702  0.22242727  0.67194570     0.12900
C1626       C  0.20771231  0.24381488  0.67229676     0.62500
F1627       F  0.18352698  0.18975445  0.70243497    -0.22700
F1628       F  0.20478490  0.18572549  0.70549647    -0.20000
F1629       F  0.19480658  0.18210671  0.68011100    -0.19700
F1630       F  0.20775199  0.25222694  0.68612210    -0.19800
F1631       F  0.19847636  0.24789152  0.66051318    -0.20100
F1632       F  0.21979811  0.24453011  0.66453596    -0.22800
C1633       C  0.27043458  0.08489827  0.51494214    -0.05600
C1634       C  0.25848714  0.08708551  0.52312961     0.00300
C1635       C  0.24715059  0.08916815  0.51310675    -0.08200
C1636       C  0.24801968  0.08808405  0.49511370    -0.05600
C1637       C  0.25986157  0.08528687  0.48705064     0.00300
C1638       C  0.27136413  0.08425865  0.49695225    -0.08200
C1639       C  0.28453399  0.08263272  0.48845847     0.62200
H1640       H  0.27902499  0.08347188  0.52280948     0.12900
H1641       H  0.23940754  0.08914998  0.48719232     0.12900
C1642       C  0.23418306  0.09221726  0.52140252     0.62500
F1643       F  0.29461674  0.08326262  0.50024408    -0.22700
F1644       F  0.28638852  0.09248094  0.47652365    -0.20000
F1645       F  0.28512307  0.07069732  0.48028805    -0.19700
F1646       F  0.23510792  0.10388458  0.53017899    -0.19800
F1647       F  0.23081617  0.08237173  0.53273257    -0.20100
F1648       F  0.22430795  0.09340033  0.50937920    -0.22800
C1649       C  0.29656642  0.29835295  0.18543663    -0.05600
C1650       C  0.29405402  0.28585697  0.17896124     0.00300
C1651       C  0.28170841  0.28288735  0.17191652    -0.08200
C1652       C  0.27204998  0.29258522  0.17192227    -0.05600
C1653       C  0.27442758  0.30499878  0.17880857     0.00300
C1654       C  0.28685465  0.30801808  0.18565646    -0.08200
C1655       C  0.28960061  0.32111922  0.19396842     0.62200
H1656       H  0.30607377  0.30030571  0.19090574     0.12900
H1657       H  0.26241750  0.29044333  0.16697798     0.12900
C1658       C  0.27876099  0.26944986  0.16472527     0.62500
F1659       F  0.30200925  0.32169807  0.20089125    -0.22700
F1660       F  0.28079882  0.32327872  0.20705424    -0.20000
F1661       F  0.28849985  0.33095336  0.18189338    -0.19700
F1662       F  0.27954448  0.26022168  0.17766006    -0.19800
F1663       F  0.28767316  0.26645141  0.15207446    -0.20100
F1664       F  0.26641865  0.26878515  0.15761075    -0.22800
C1665       C  0.30815564  0.19241473  0.23886583    -0.05600
C1666       C  0.32005289  0.19767668  0.24440620     0.00300
C1667       C  0.32490376  0.19436662  0.26086681    -0.08200
C1668       C  0.31714992  0.18656106  0.27177187    -0.05600
C1669       C  0.30476243  0.18222383  0.26668113     0.00300
C1670       C  0.30039150  0.18469856  0.24973977    -0.08200
C1671       C  0.28747797  0.17937793  0.24328037     0.62200
H1672       H  0.30465806  0.19501057  0.22618372     0.12900
H1673       H  0.32031126  0.18452982  0.28477526     0.12900
C1674       C  0.33782767  0.19969569  0.26717417     0.62500
F1675       F  0.28560511  0.18201641  0.22601420    -0.22700
F1676       F  0.27730854  0.18490946  0.25223045    -0.20000
F1677       F  0.28717249  0.16598817  0.24551138    -0.19700
F1678       F  0.33756664  0.21319016  0.26705251    -0.19800
F1679       F  0.34768971  0.19543214  0.25655953    -0.20100
F1680       F  0.34061252  0.19559822  0.28372173    -0.22800
C1681       C  0.28200783  0.31106393  0.82421114    -0.05600
C1682       C  0.27243975  0.31036572  0.83699129     0.00300
C1683       C  0.27302321  0.30026972  0.84943980    -0.08200
C1684       C  0.28288626  0.29076577  0.84808105    -0.05600
C1685       C  0.29202566  0.29112262  0.83474321     0.00300
C1686       C  0.29191430  0.30165872  0.82297018    -0.08200
C1687       C  0.30222167  0.30292364  0.80916164     0.62200
H1688       H  0.28142273  0.31888412  0.81485946     0.12900
H1689       H  0.28327071  0.28269762  0.85707419     0.12900
C1690       C  0.26298493  0.29923940  0.86362692     0.62500
F1691       F  0.30107379  0.31451899  0.80012208    -0.22700
F1692       F  0.30109228  0.29274201  0.79766376    -0.20000
F1693       F  0.31445049  0.30262943  0.81661611    -0.19700
F1694       F  0.25059970  0.29878746  0.85665022    -0.19800
F1695       F  0.26400956  0.30994327  0.87429499    -0.20100
F1696       F  0.26471952  0.28812882  0.87350949    -0.22800
C1697       C  0.31870721  0.20113749  0.75232962    -0.05600
C1698       C  0.31354485  0.19969308  0.76884840     0.00300
C1699       C  0.30352264  0.19047931  0.77181530    -0.08200
C1700       C  0.29816595  0.18374635  0.75771718    -0.05600
C1701       C  0.30257481  0.18602711  0.74094497     0.00300
C1702       C  0.31329775  0.19447528  0.73821500    -0.08200
C1703       C  0.31859940  0.19681512  0.72034194     0.62200
H1704       H  0.32646779  0.20816060  0.75040542     0.12900
H1705       H  0.28994336  0.17725905  0.75954817     0.12900
C1706       C  0.29840012  0.18802796  0.78978005     0.62500
F1707       F  0.32956900  0.20469247  0.72057993    -0.22700
F1708       F  0.30925011  0.20282204  0.71029158    -0.20000
F1709       F  0.32194076  0.18501528  0.71302452    -0.19700
F1710       F  0.29245699  0.19914632  0.79595671    -0.19800
F1711       F  0.30861508  0.18470609  0.80052334    -0.20100
F1712       F  0.28939805  0.17795939  0.79012325    -0.22800
C1713       C  0.40885124  0.24387330  0.99354966    -0.05600
C1714       C  0.41062527  0.23167982  0.98578529     0.00300
C1715       C  0.41148551  0.22032687  0.99609556    -0.08200
C1716       C  0.41192177  0.22172497  0.01403892    -0.05600
C1717       C  0.41094883  0.23400620  0.02181410     0.00300
C1718       C  0.40887378  0.24523162  0.01153189    -0.08200
C1719       C  0.40705053  0.25858395  0.01951763     0.62200
H1720       H  0.40784648  0.25238226  0.98537891     0.12900
H1721       H  0.41323130  0.21323248  0.02216850     0.12900
C1722       C  0.41157876  0.20681683  0.98815956     0.62500
F1723       F  0.40584063  0.26827691  0.00720777    -0.22700
F1724       F  0.41762256  0.26159479  0.02979926    -0.20000
F1725       F  0.39587562  0.25857968  0.02935261    -0.19700
F1726       F  0.42297624  0.20492042  0.97916125    -0.19800
F1727       F  0.40109933  0.20553328  0.97709607    -0.20100
F1728       F  0.41062698  0.19711064  0.00048566    -0.22800
C1729       C  0.28253755  0.99664037  0.38199025    -0.05600
C1730       C  0.27094046  0.98938209  0.38174813     0.00300
C1731       C  0.25889138  0.99591361  0.37988970    -0.08200
C1732       C  0.25877899  0.00966110  0.37982235    -0.05600
C1733       C  0.27031229  0.01691530  0.38134744     0.00300
C1734       C  0.28242751  0.01039210  0.38162552    -0.08200
C1735       C  0.29510166  0.01799570  0.38225327     0.62200
H1736       H  0.29165495  0.99145162  0.38336697     0.12900
H1737       H  0.24961429  0.01486406  0.37963249     0.12900
C1738       C  0.24618988  0.98837265  0.37899131     0.62500
F1739       F  0.30581818  0.00983497  0.38222409    -0.22700
F1740       F  0.29559672  0.02550306  0.39695970    -0.20000
F1741       F  0.29590395  0.02607097  0.36804640    -0.19700
F1742       F  0.24428980  0.98156388  0.39412621    -0.19800
F1743       F  0.24659436  0.97967309  0.36547763    -0.20100
F1744       F  0.23563701  0.99653673  0.37645785    -0.22800
C1745       C  0.28415052  0.00048928  0.62551996    -0.05600
C1746       C  0.27334427  0.99283879  0.63001873     0.00300
C1747       C  0.26185044  0.99902439  0.63580822    -0.08200
C1748       C  0.26108945  0.01277989  0.63509076    -0.05600
C1749       C  0.27156370  0.02035082  0.62917344     0.00300
C1750       C  0.28353074  0.01421135  0.62536087    -0.08200
C1751       C  0.29551014  0.02216266  0.62081956     0.62200
H1752       H  0.29292170  0.99561041  0.62131941     0.12900
H1753       H  0.25209230  0.01768025  0.63828652     0.12900
C1754       C  0.25034060  0.99107887  0.64211367     0.62500
F1755       F  0.30661456  0.01453801  0.62066399    -0.22700
F1756       F  0.29730987  0.03192218  0.63283423    -0.20000
F1757       F  0.29400386  0.02773434  0.60477360    -0.19700
F1758       F  0.25404983  0.98385181  0.65630619    -0.19800
F1759       F  0.24608017  0.98272495  0.62936234    -0.20100
F1760       F  0.24001925  0.99893732  0.64682721    -0.22800
C1761       C  0.25487053  0.93022902  0.51728239    -0.05600
C1762       C  0.26499705  0.92363824  0.52570556     0.00300
C1763       C  0.27450134  0.91695375  0.51597582    -0.08200
C1764       C  0.27353006  0.91716478  0.49794208    -0.05600
C1765       C  0.26367930  0.92417698  0.48956092     0.00300
C1766       C  0.25406669  0.93067657  0.49928008    -0.08200
C1767       C  0.24309379  0.93814492  0.49065566     0.62200
H1768       H  0.24780288  0.93539721  0.52497897     0.12900
H1769       H  0.28078366  0.91231352  0.49019222     0.12900
C1770       C  0.28600098  0.91029860  0.52454148     0.62500
F1771       F  0.23410137  0.94264717  0.50242386    -0.22700
F1772       F  0.23665583  0.93010429  0.47919174    -0.20000
F1773       F  0.24806366  0.94880450  0.48195043    -0.19700
F1774       F  0.28169169  0.89989486  0.53431940    -0.19800
F1775       F  0.29249327  0.91907704  0.53497875    -0.20100
F1776       F  0.29480017  0.90559693  0.51265698    -0.22800
C1777       C  0.30225579  0.82037212  0.24252967    -0.05600
C1778       C  0.31222543  0.81163484  0.24695248     0.00300
C1779       C  0.31552044  0.80982420  0.26444903    -0.08200
C1780       C  0.30814635  0.81630730  0.27705637    -0.05600
C1781       C  0.29764344  0.82438823  0.27262520     0.00300
C1782       C  0.29484626  0.82678413  0.25511534    -0.08200
C1783       C  0.28357480  0.83545032  0.24981816     0.62200
H1784       H  0.29980391  0.82151574  0.22908240     0.12900
H1785       H  0.31007596  0.81457582  0.29054073     0.12900
C1786       C  0.32623628  0.80048190  0.26975664     0.62500
F1787       F  0.28267728  0.83673196  0.23216323    -0.22700
F1788       F  0.28522502  0.84776069  0.25671169    -0.20000
F1789       F  0.27202327  0.83016910  0.25573269    -0.19700
F1790       F  0.33791134  0.80449255  0.26269617    -0.19800
F1791       F  0.32333007  0.78804157  0.26404528    -0.20100
F1792       F  0.32775862  0.79997391  0.28740162    -0.22800
C1793       C  0.31824239  0.81379324  0.75818796    -0.05600
C1794       C  0.31561580  0.81523837  0.77574321     0.00300
C1795       C  0.30680490  0.82499436  0.78115468    -0.08200
C1796       C  0.30013460  0.83238653  0.76866837    -0.05600
C1797       C  0.30209221  0.83031657  0.75109611     0.00300
C1798       C  0.31159760  0.82124470  0.74569291    -0.08200
C1799       C  0.31430691  0.81919907  0.72676327     0.62200
H1800       H  0.32501547  0.80628360  0.75430340     0.12900
H1801       H  0.29279492  0.83935483  0.77251519     0.12900
C1802       C  0.30424156  0.82729190  0.80006726     0.62500
F1803       F  0.32390534  0.80996803  0.72414321    -0.22700
F1804       F  0.31839457  0.83083862  0.71952012    -0.20000
F1805       F  0.30313435  0.81502655  0.71847927    -0.19700
F1806       F  0.31584793  0.83008518  0.80831634    -0.19800
F1807       F  0.29875221  0.81628120  0.80737389    -0.20100
F1808       F  0.29583606  0.83763559  0.80264742    -0.22800
C1809       C  0.41264106  0.78102441  0.00073832    -0.05600
C1810       C  0.41180094  0.76891870  0.99243886     0.00300
C1811       C  0.40995498  0.75741846  0.00230465    -0.08200
C1812       C  0.40968201  0.75840796  0.02034902    -0.05600
C1813       C  0.41116930  0.77045705  0.02860344     0.00300
C1814       C  0.41220401  0.78201926  0.01872663    -0.08200
C1815       C  0.41277551  0.79533625  0.02718728     0.62200
H1816       H  0.41392723  0.78971239  0.99296883     0.12900
H1817       H  0.40876180  0.74972028  0.02820503     0.12900
C1818       C  0.40880622  0.74414311  0.99387122     0.62500
F1819       F  0.41225560  0.80534766  0.01524185    -0.22700
F1820       F  0.42421748  0.79662244  0.03638702    -0.20000
F1821       F  0.40232426  0.79673130  0.03818025    -0.19700
F1822       F  0.41958265  0.74187912  0.98372090    -0.19800
F1823       F  0.39771350  0.74372928  0.98382500    -0.20100
F1824       F  0.40798828  0.73417589  0.00585705    -0.22800
C1825       C  0.20727783  0.77428624  0.35737382    -0.05600
C1826       C  0.19467539  0.77777947  0.35221753     0.00300
C1827       C  0.19193102  0.79097923  0.34814876    -0.08200
C1828       C  0.20222599  0.80011393  0.34827607    -0.05600
C1829       C  0.21503323  0.79638374  0.35220356     0.00300
C1830       C  0.21751097  0.78343255  0.35771312    -0.08200
C1831       C  0.23087814  0.77921035  0.36387274     0.62200
H1832       H  0.20916202  0.76416486  0.36056455     0.12900
H1833       H  0.20047606  0.81012953  0.34446407     0.12900
C1834       C  0.17836684  0.79524531  0.34284877     0.62500
F1835       F  0.23034248  0.76738299  0.37249000    -0.22700
F1836       F  0.23594884  0.78838725  0.37504786    -0.20000
F1837       F  0.23912680  0.77785409  0.35003435    -0.19700
F1838       F  0.16979671  0.79313449  0.35620980    -0.19800
F1839       F  0.17432170  0.78820827  0.32867812    -0.20100
F1840       F  0.17794694  0.80837497  0.33865938    -0.22800
C1841       C  0.20601338  0.78622871  0.67430461    -0.05600
C1842       C  0.19347257  0.78929682  0.68010782     0.00300
C1843       C  0.19094716  0.80195804  0.68659405    -0.08200
C1844       C  0.20120145  0.81113309  0.68707959    -0.05600
C1845       C  0.21380728  0.80787600  0.68176388     0.00300
C1846       C  0.21628233  0.79530913  0.67507749    -0.08200
C1847       C  0.22974178  0.79151843  0.66887458     0.62200
H1848       H  0.20777534  0.77646888  0.66955311     0.12900
H1849       H  0.19958929  0.82079862  0.69223398     0.12900
C1850       C  0.17774476  0.80552575  0.69387784     0.62500
F1851       F  0.22993452  0.77901181  0.66220743    -0.22700
F1852       F  0.23850753  0.79198288  0.68234067    -0.20000
F1853       F  0.23370773  0.80007447  0.65615882    -0.19700
F1854       F  0.17429398  0.79670267  0.70654940    -0.19800
F1855       F  0.16848505  0.80533092  0.68100150    -0.20100
F1856       F  0.17777933  0.81787237  0.70104931    -0.22800
C1857       C  0.06837263  0.75951987  0.51772154    -0.05600
C1858       C  0.07351053  0.74842757  0.52582758     0.00300
C1859       C  0.07849621  0.73808707  0.51580417    -0.08200
C1860       C  0.07736151  0.73886352  0.49783776    -0.05600
C1861       C  0.07156724  0.74964479  0.48977210     0.00300
C1862       C  0.06755446  0.76043172  0.49973091    -0.08200
C1863       C  0.06269322  0.77290707  0.49139610     0.62200
H1864       H  0.06472438  0.76736254  0.52565051     0.12900
H1865       H  0.08067612  0.73086865  0.48992202     0.12900
C1866       C  0.08470166  0.72617881  0.52403241     0.62500
F1867       F  0.06117801  0.78281033  0.50327193    -0.22700
F1868       F  0.05080398  0.77072541  0.48359571    -0.20000
F1869       F  0.07154633  0.77711197  0.47921771    -0.19700
F1870       F  0.07625648  0.72059069  0.53574193    -0.19800
F1871       F  0.09602707  0.72984832  0.53234385    -0.20100
F1872       F  0.08783941  0.71678533  0.51200786    -0.22800
C1873       C  0.26347592  0.71981715  0.16618749    -0.05600
C1874       C  0.26722981  0.70782683  0.17336359     0.00300
C1875       C  0.28032010  0.70601442  0.17865905    -0.08200
C1876       C  0.28911620  0.71654888  0.17717608    -0.05600
C1877       C  0.28519986  0.72868683  0.17062571     0.00300
C1878       C  0.27231252  0.73026808  0.16450282    -0.08200
C1879       C  0.26802147  0.74286278  0.15593150     0.62200
H1880       H  0.25345598  0.72098202  0.16211582     0.12900
H1881       H  0.29904223  0.71554543  0.18169286     0.12900
C1882       C  0.28484925  0.69322154  0.18647563     0.62500
F1883       F  0.25549557  0.74193868  0.14944236    -0.22700
F1884       F  0.27630020  0.74573220  0.14246400    -0.20000
F1885       F  0.26832050  0.75298641  0.16759405    -0.19700
F1886       F  0.28402865  0.68342858  0.17437335    -0.19800
F1887       F  0.27714500  0.69001844  0.20039934    -0.20100
F1888       F  0.29763299  0.69391155  0.19206700    -0.22800
C1889       C  0.17360523  0.69321481  0.24136175    -0.05600
C1890       C  0.18078868  0.68195166  0.24535987     0.00300
C1891       C  0.18088370  0.67720527  0.26248208    -0.08200
C1892       C  0.17428086  0.68436262  0.27518498    -0.05600
C1893       C  0.16783167  0.69603704  0.27127702     0.00300
C1894       C  0.16718469  0.70042921  0.25410064    -0.08200
C1895       C  0.16020119  0.71299329  0.24945723     0.62200
H1896       H  0.17369853  0.69674047  0.22824473     0.12900
H1897       H  0.17466291  0.68127296  0.28847907     0.12900
C1898       C  0.18849645  0.66511319  0.26755186     0.62500
F1899       F  0.16046407  0.71541258  0.23197544    -0.22700
F1900       F  0.16606782  0.72341523  0.25766966    -0.20000
F1901       F  0.14733582  0.71217463  0.25451940    -0.19700
F1902       F  0.20135107  0.66638834  0.26258260    -0.19800
F1903       F  0.18308173  0.65429539  0.25973461    -0.20100
F1904       F  0.18831690  0.66302400  0.28510902    -0.22800
C1905       C  0.22172981  0.51235929  0.13702958    -0.05600
C1906       C  0.20921639  0.51757382  0.13500573     0.00300
C1907       C  0.19831039  0.50912681  0.13452813    -0.08200
C1908       C  0.20038939  0.49554786  0.13469136    -0.05600
C1909       C  0.21299842  0.49035623  0.13502790     0.00300
C1910       C  0.22383002  0.49879197  0.13684496    -0.08200
C1911       C  0.23756661  0.49343862  0.13763670     0.62200
H1912       H  0.22993588  0.51901156  0.13738821     0.12900
H1913       H  0.19224320  0.48890381  0.13326572     0.12900
C1914       C  0.18461474  0.51450422  0.13314421     0.62500
F1915       F  0.24664377  0.50316501  0.14071871    -0.22700
F1916       F  0.24062909  0.48754065  0.12223769    -0.20000
F1917       F  0.23847462  0.48433280  0.15071386    -0.19700
F1918       F  0.18303885  0.52080648  0.11757309    -0.19800
F1919       F  0.18247905  0.52327472  0.14629084    -0.20100
F1920       F  0.17532276  0.50473399  0.13430137    -0.22800
C1921       C  0.27771207  0.70664670  0.83655304    -0.05600
C1922       C  0.26621010  0.71050719  0.84476518     0.00300
C1923       C  0.26570377  0.72281726  0.85297229    -0.08200
C1924       C  0.27664136  0.73111025  0.85209005    -0.05600
C1925       C  0.28795816  0.72744329  0.84335450     0.00300
C1926       C  0.28861292  0.71500628  0.83555462    -0.08200
C1927       C  0.30062412  0.71083593  0.82574234     0.62200
H1928       H  0.27790943  0.69719054  0.83038583     0.12900
H1929       H  0.27633966  0.74070769  0.85786516     0.12900
C1930       C  0.25370426  0.72711479  0.86272857     0.62500
F1931       F  0.29919975  0.69850280  0.81876530    -0.22700
F1932       F  0.31124874  0.71066201  0.83666057    -0.20000
F1933       F  0.30297756  0.71952147  0.81248515    -0.19700
F1934       F  0.25063164  0.71788537  0.87505917    -0.19800
F1935       F  0.24332682  0.72849491  0.85156638    -0.20100
F1936       F  0.25563330  0.73894622  0.87090326    -0.22800
C1937       C  0.18477371  0.68296839  0.75571834    -0.05600
C1938       C  0.18020061  0.68642303  0.77201221     0.00300
C1939       C  0.16962574  0.69517877  0.77347107    -0.08200
C1940       C  0.16460087  0.70102603  0.75849385    -0.05600
C1941       C  0.16994856  0.69843122  0.74233553     0.00300
C1942       C  0.17980929  0.68888368  0.74074460    -0.08200
C1943       C  0.18508262  0.68505987  0.72330792     0.62200
H1944       H  0.19279187  0.67615653  0.75489152     0.12900
H1945       H  0.15694120  0.70823594  0.75938572     0.12900
C1946       C  0.16381470  0.69839879  0.79081454     0.62500
F1947       F  0.19373500  0.67475640  0.72448093    -0.22700
F1948       F  0.19150933  0.69550554  0.71591372    -0.20000
F1949       F  0.17490406  0.68129645  0.71276227    -0.19700
F1950       F  0.17292866  0.70470505  0.80091136    -0.19800
F1951       F  0.15997398  0.68699270  0.79888759    -0.20100
F1952       F  0.15303976  0.70641544  0.78930249    -0.22800
C1953       C  0.19754428  0.51456213  0.88486797    -0.05600
C1954       C  0.20940676  0.52135287  0.88452019     0.00300
C1955       C  0.22118663  0.51439542  0.88261786    -0.08200
C1956       C  0.22080164  0.50065796  0.88280315    -0.05600
C1957       C  0.20900119  0.49387315  0.88446752     0.00300
C1958       C  0.19714374  0.50083173  0.88461061    -0.08200
C1959       C  0.18420362  0.49368663  0.88488331     0.62200
H1960       H  0.18863544  0.52009324  0.88620042     0.12900
H1961       H  0.22976451  0.49511564  0.88265718     0.12900
C1962       C  0.23408982  0.52151685  0.88110060     0.62500
F1963       F  0.17379332  0.50223604  0.88477495    -0.22700
F1964       F  0.18329462  0.48598490  0.89943035    -0.20000
F1965       F  0.18325794  0.48584671  0.87051451    -0.19700
F1966       F  0.23641608  0.52875248  0.89574668    -0.19800
F1967       F  0.23371078  0.52979360  0.86706346    -0.20100
F1968       F  0.24436451  0.51296994  0.87892258    -0.22800
C1969       C  0.22607783  0.58940183  0.00028449    -0.05600
C1970       C  0.21397106  0.58662794  0.99274840     0.00300
C1971       C  0.20308284  0.58410960  0.00336817    -0.08200
C1972       C  0.20487180  0.58369882  0.02127083    -0.05600
C1973       C  0.21709213  0.58588192  0.02882601     0.00300
C1974       C  0.22787013  0.58901787  0.01824452    -0.08200
C1975       C  0.24129237  0.59137471  0.02579850     0.62200
H1976       H  0.23423933  0.59141541  0.99191165     0.12900
H1977       H  0.19674263  0.58136074  0.02956116     0.12900
C1978       C  0.18961652  0.58191236  0.99583937     0.62500
F1979       F  0.25058325  0.59320593  0.01317693    -0.22700
F1980       F  0.24499500  0.58076767  0.03566445    -0.20000
F1981       F  0.24110440  0.60241881  0.03591698    -0.19700
F1982       F  0.18922232  0.57011354  0.98732232    -0.19800
F1983       F  0.18664100  0.59185834  0.98446001    -0.20100
F1984       F  0.18012451  0.58170822  0.00841625    -0.22800
C1985       C  0.49792007  0.79925843  0.12529924    -0.05600
C1986       C  0.50495410  0.78864868  0.13192764     0.00300
C1987       C  0.49813450  0.77831361  0.14009876    -0.08200
C1988       C  0.48437814  0.77852415  0.14017038    -0.05600
C1989       C  0.47738032  0.78865220  0.13229264     0.00300
C1990       C  0.48421661  0.79948651  0.12543023    -0.08200
C1991       C  0.47703409  0.81113583  0.11797399     0.62200
H1992       H  0.50327150  0.80711058  0.11918855     0.12900
H1993       H  0.47896278  0.77035608  0.14539241     0.12900
C1994       C  0.50530742  0.76678805  0.14783731     0.62500
F1995       F  0.48543271  0.82130523  0.11409433    -0.22700
F1996       F  0.46805815  0.81563190  0.12974383    -0.20000
F1997       F  0.47063098  0.80760878  0.10307658    -0.19700
F1998       F  0.51300594  0.77101440  0.16129248    -0.19800
F1999       F  0.51305935  0.76098707  0.13555944    -0.20100
F2000       F  0.49682245  0.75741676  0.15410950    -0.22800
C2001       C  0.49926518  0.80038503  0.89030631    -0.05600
C2002       C  0.50628449  0.78922941  0.88562543     0.00300
C2003       C  0.49944969  0.77788542  0.88041889    -0.08200
C2004       C  0.48571685  0.77781336  0.88120793    -0.05600
C2005       C  0.47876971  0.78862385  0.88729946     0.00300
C2006       C  0.48556479  0.80030980  0.89114457    -0.08200
C2007       C  0.47835463  0.81259750  0.89627546     0.62200
H2008       H  0.50466272  0.80897780  0.89420835     0.12900
H2009       H  0.48034811  0.76899335  0.87823350     0.12900
C2010       C  0.50669758  0.76566191  0.87518836     0.62500
F2011       F  0.48667746  0.82317802  0.89786036    -0.22700
F2012       F  0.47221221  0.81074554  0.91184236    -0.20000
F2013       F  0.46915381  0.81559078  0.88389871    -0.19700
F2014       F  0.51421662  0.76126073  0.88875697    -0.19800
F2015       F  0.51466724  0.76840214  0.86137126    -0.20100
F2016       F  0.49827958  0.75573129  0.87045189    -0.22800
C2017       C  0.56714305  0.77024318  0.99827918    -0.05600
C2018       C  0.57489309  0.77958546  0.98992995     0.00300
C2019       C  0.58254421  0.78829138  0.99989692    -0.08200
C2020       C  0.58156484  0.78776613  0.01797138    -0.05600
C2021       C  0.57319570  0.77891352  0.02622084     0.00300
C2022       C  0.56634248  0.76957742  0.01628815    -0.08200
C2023       C  0.55825970  0.75886245  0.02456732     0.62200
H2024       H  0.56141673  0.76360372  0.99050978     0.12900
H2025       H  0.58696695  0.79461264  0.02581715     0.12900
C2026       C  0.59122177  0.79846888  0.99153081     0.62500
F2027       F  0.55549734  0.74895325  0.01307294    -0.22700
F2028       F  0.54661816  0.76392325  0.03031437    -0.20000
F2029       F  0.56495774  0.75341040  0.03823568    -0.19700
F2030       F  0.58395482  0.80618036  0.98052708    -0.19800
F2031       F  0.60097829  0.79237992  0.98241793    -0.20100
F2032       F  0.59706125  0.80653635  0.00352771    -0.22800
C2033       C  0.67166219  0.82268645  0.24741106    -0.05600
C2034       C  0.66817151  0.81003075  0.25261391     0.00300
C2035       C  0.67157477  0.80567721  0.26930817    -0.08200
C2036       C  0.67936203  0.81376211  0.27968593    -0.05600
C2037       C  0.68367593  0.82603365  0.27403204     0.00300
C2038       C  0.67946646  0.83080050  0.25786500    -0.08200
C2039       C  0.68382400  0.84404798  0.25132029     0.62200
H2040       H  0.66889511  0.82585267  0.23463139     0.12900
H2041       H  0.68261371  0.81032217  0.29214752     0.12900
C2042       C  0.66694027  0.79258486  0.27620299     0.62500
F2043       F  0.67897947  0.84665699  0.23507828    -0.22700
F2044       F  0.69726497  0.84451747  0.25056453    -0.20000
F2045       F  0.67943563  0.85366985  0.26224451    -0.19700
F2046       F  0.67277723  0.78249533  0.26741694    -0.19800
F2047       F  0.65358097  0.79164363  0.27434685    -0.20100
F2048       F  0.66988985  0.79108358  0.29344090    -0.22800
C2049       C  0.72417663  0.92620136  0.51378644    -0.05600
C2050       C  0.73613916  0.92760296  0.52227382     0.00300
C2051       C  0.74775199  0.92868532  0.51267472    -0.08200
C2052       C  0.74695505  0.92885742  0.49464034    -0.05600
C2053       C  0.73494885  0.92789486  0.48615659     0.00300
C2054       C  0.72337528  0.92630730  0.49575434    -0.08200
C2055       C  0.71024993  0.92507226  0.48693718     0.62200
H2056       H  0.71542452  0.92539388  0.52143769     0.12900
H2057       H  0.75567298  0.93004722  0.48700428     0.12900
C2058       C  0.76085152  0.92981648  0.52154668     0.62500
F2059       F  0.70027430  0.92316115  0.49859254    -0.22700
F2060       F  0.71037281  0.91455000  0.47587277    -0.20000
F2061       F  0.70763879  0.93632142  0.47772496    -0.19700
F2062       F  0.76278593  0.91905362  0.53198268    -0.19800
F2063       F  0.76118952  0.94098812  0.53144885    -0.20100
F2064       F  0.77099016  0.93043463  0.50990419    -0.22800
C2065       C  0.68221251  0.83573584  0.75728681    -0.05600
C2066       C  0.68520942  0.83003666  0.74141194     0.00300
C2067       C  0.67967570  0.81775809  0.73717244    -0.08200
C2068       C  0.67263442  0.81093018  0.74975712    -0.05600
C2069       C  0.67048814  0.81615090  0.76609591     0.00300
C2070       C  0.67482804  0.82897622  0.76975999    -0.08200
C2071       C  0.67229686  0.83512728  0.78710185     0.62200
H2072       H  0.68642026  0.84516329  0.76027152     0.12900
H2073       H  0.66908019  0.80118905  0.74694432     0.12900
C2074       C  0.68095693  0.81129443  0.71974636     0.62500
F2075       F  0.67747579  0.84758027  0.78818091    -0.22700
F2076       F  0.67782260  0.82758700  0.79992781    -0.20000
F2077       F  0.65903645  0.83598394  0.78980419    -0.19700
F2078       F  0.68772777  0.79972038  0.72153198    -0.19800
F2079       F  0.68723568  0.81898309  0.70774496    -0.20100
F2080       F  0.66865807  0.80856198  0.71342189    -0.22800
C2081       C  0.98503275  0.71253379  0.38625373    -0.05600
C2082       C  0.97677954  0.72340691  0.38600076     0.00300
C2083       C  0.98218503  0.73611737  0.38537412    -0.08200
C2084       C  0.99582422  0.73751350  0.38577325    -0.05600
C2085       C  0.00408432  0.72664977  0.38692019     0.00300
C2086       C  0.99867009  0.71392549  0.38681885    -0.08200
C2087       C  0.00720278  0.70192690  0.38852083     0.62200
H2088       H  0.98065037  0.70292545  0.38702039     0.12900
H2089       H  0.00016337  0.74715517  0.38606382     0.12900
C2090       C  0.97355593  0.74812636  0.38520890     0.62500
F2091       F  0.99994451  0.69052772  0.38876141    -0.22700
F2092       F  0.01427231  0.70254982  0.40362679    -0.20000
F2093       F  0.01566030  0.70130017  0.37479725    -0.19700
F2094       F  0.96574201  0.74821706  0.39963288    -0.19800
F2095       F  0.96578131  0.74800692  0.37070687    -0.20100
F2096       F  0.98076280  0.75955857  0.38508060    -0.22800
C2097       C  0.79877743  0.80251454  0.32177452    -0.05600
C2098       C  0.79716258  0.79092512  0.33116248     0.00300
C2099       C  0.78593732  0.78916161  0.34140483    -0.08200
C2100       C  0.77643016  0.79902728  0.34156788    -0.05600
C2101       C  0.77785876  0.81043099  0.33178255     0.00300
C2102       C  0.78925541  0.81238550  0.32195641    -0.08200
C2103       C  0.79111038  0.82473038  0.31144772     0.62200
H2104       H  0.80740477  0.80360726  0.31393903     0.12900
H2105       H  0.76755257  0.79771253  0.34884234     0.12900
C2106       C  0.78379502  0.77665115  0.35147850     0.62500
F2107       F  0.80288006  0.82478856  0.30284554    -0.22700
F2108       F  0.79082281  0.83545876  0.32216370    -0.20000
F2109       F  0.78124187  0.82582023  0.29942841    -0.19700
F2110       F  0.79388976  0.77486121  0.36300025    -0.19800
F2111       F  0.78331491  0.76616870  0.34035180    -0.20100
F2112       F  0.77227485  0.77690519  0.36063648    -0.22800
C2113       C  0.98690045  0.71310817  0.62942180    -0.05600
C2114       C  0.97922523  0.72433408  0.63121029     0.00300
C2115       C  0.98534807  0.73662123  0.63332427    -0.08200
C2116       C  0.99901823  0.73739223  0.63215732    -0.05600
C2117       C  0.00663337  0.72626249  0.62934032     0.00300
C2118       C  0.00059288  0.71385165  0.62869623    -0.08200
C2119       C  0.00859912  0.70155078  0.62662463     0.62200
H2120       H  0.98203340  0.70380212  0.62780238     0.12900
H2121       H  0.00385234  0.74678780  0.63269043     0.12900
C2122       C  0.97741557  0.74890548  0.63604340     0.62500
F2123       F  0.00090095  0.69044236  0.62676917    -0.22700
F2124       F  0.01742699  0.70060032  0.63999094    -0.20000
F2125       F  0.01527268  0.70196188  0.61124777    -0.19700
F2126       F  0.97006565  0.74760185  0.65078282    -0.19800
F2127       F  0.96922457  0.75094223  0.62218739    -0.20100
F2128       F  0.98525141  0.75982300  0.63787476    -0.22800
C2129       C  0.91225594  0.71588475  0.51957339    -0.05600
C2130       C  0.91062197  0.72814889  0.52716954     0.00300
C2131       C  0.90841157  0.73924738  0.51669916    -0.08200
C2132       C  0.90835783  0.73769667  0.49872972    -0.05600
C2133       C  0.91059273  0.72550240  0.49114685     0.00300
C2134       C  0.91214966  0.71431789  0.50166842    -0.08200
C2135       C  0.91344223  0.70075204  0.49406805     0.62200
H2136       H  0.91388325  0.70753174  0.52785051     0.12900
H2137       H  0.90705992  0.74608528  0.49042113     0.12900
C2138       C  0.90677260  0.75271418  0.52444242     0.62500
F2139       F  0.91275813  0.69114267  0.50655734    -0.22700
F2140       F  0.92526190  0.69954432  0.48583858    -0.20000
F2141       F  0.90347675  0.69858060  0.48244494    -0.19700
F2142       F  0.90528169  0.76223780  0.51196306    -0.19800
F2143       F  0.91761295  0.75582542  0.53418192    -0.20100
F2144       F  0.89585823  0.75291943  0.53475167    -0.22800
C2145       C  0.78062512  0.78235105  0.67296868    -0.05600
C2146       C  0.79348714  0.78552558  0.67740131     0.00300
C2147       C  0.79678403  0.79864040  0.68128278    -0.08200
C2148       C  0.78683242  0.80808375  0.68124372    -0.05600
C2149       C  0.77389520  0.80471918  0.67758019     0.00300
C2150       C  0.77074007  0.79179261  0.67284727    -0.08200
C2151       C  0.75697746  0.78805085  0.66769735     0.62200
H2152       H  0.77832754  0.77228531  0.66997814     0.12900
H2153       H  0.78896726  0.81809318  0.68471088     0.12900
C2154       C  0.81052897  0.80251834  0.68635703     0.62500
F2155       F  0.75618052  0.77519783  0.66236739    -0.22700
F2156       F  0.75289024  0.79592746  0.65429558    -0.20000
F2157       F  0.74867161  0.78961707  0.68145384    -0.19700
F2158       F  0.81897735  0.80001913  0.67301812    -0.19800
F2159       F  0.81435690  0.79549993  0.70068118    -0.20100
F2160       F  0.81145316  0.81567250  0.69020406    -0.22800
C2161       C  0.70642059  0.71056445  0.16810140    -0.05600
C2162       C  0.70805855  0.70369024  0.18355370     0.00300
C2163       C  0.69964890  0.70622225  0.19751788    -0.08200
C2164       C  0.69050789  0.71632035  0.19595191    -0.05600
C2165       C  0.68929525  0.72366690  0.18083096     0.00300
C2166       C  0.69716044  0.72062881  0.16649477    -0.08200
C2167       C  0.69619308  0.72834000  0.14990246     0.62200
H2168       H  0.71285301  0.70834638  0.15752197     0.12900
H2169       H  0.68443694  0.71881176  0.20680639     0.12900
C2170       C  0.70035086  0.69854426  0.21418364     0.62500
F2171       F  0.70536338  0.72438186  0.13802752    -0.22700
F2172       F  0.69816879  0.74146455  0.15311975    -0.20000
F2173       F  0.68400686  0.72658882  0.14272755    -0.19700
F2174       F  0.71039869  0.70328700  0.22421848    -0.19800
F2175       F  0.70237609  0.68543951  0.21094599    -0.20100
F2176       F  0.68888103  0.69958771  0.22336716    -0.22800
C2177       C  0.80584896  0.68328600  0.25201274    -0.05600
C2178       C  0.80389314  0.68904816  0.23588737     0.00300
C2179       C  0.80984641  0.70117880  0.23207063    -0.08200
C2180       C  0.81682026  0.70763216  0.24508882    -0.05600
C2181       C  0.81786725  0.70241017  0.26170569     0.00300
C2182       C  0.81257605  0.68988384  0.26519833    -0.08200
C2183       C  0.81299109  0.68401014  0.28307439     0.62200
H2184       H  0.80114605  0.67401860  0.25460318     0.12900
H2185       H  0.82094323  0.71719798  0.24264806     0.12900
C2186       C  0.80865642  0.70736126  0.21439894     0.62500
F2187       F  0.80708731  0.67185470  0.28365883    -0.22700
F2188       F  0.80655782  0.69211560  0.29437764    -0.20000
F2189       F  0.82574198  0.68251949  0.28834835    -0.19700
F2190       F  0.79592860  0.71101060  0.21129943    -0.19800
F2191       F  0.81248555  0.69850894  0.20204786    -0.20100
F2192       F  0.81640565  0.71837196  0.21284365    -0.22800
C2193       C  0.77303551  0.58629712  0.99899844    -0.05600
C2194       C  0.76151312  0.58754129  0.98946813     0.00300
C2195       C  0.74945044  0.58887062  0.99803785    -0.08200
C2196       C  0.74934766  0.58877247  0.01610033    -0.05600
C2197       C  0.76084988  0.58724954  0.02557714     0.00300
C2198       C  0.77292378  0.58616906  0.01702602    -0.08200
C2199       C  0.78559096  0.58483932  0.02695005     0.62200
H2200       H  0.78212127  0.58516221  0.99214799     0.12900
H2201       H  0.74024001  0.58951023  0.02299404     0.12900
C2202       C  0.73674020  0.58986996  0.98816180     0.62500
F2203       F  0.79629123  0.58482747  0.01619426    -0.22700
F2204       F  0.78562095  0.57327834  0.03612747    -0.20000
F2205       F  0.78691110  0.59518056  0.03819158    -0.19700
F2206       F  0.73551022  0.57942510  0.97706111    -0.19800
F2207       F  0.73653789  0.60136696  0.97886304    -0.20100
F2208       F  0.72607170  0.58979715  0.99897445    -0.22800
C2209       C  0.69690289  0.70425850  0.82805706    -0.05600
C2210       C  0.70926624  0.70687254  0.83492790     0.00300
C2211       C  0.71170545  0.71899434  0.84298256    -0.08200
C2212       C  0.70190182  0.72855127  0.84278515    -0.05600
C2213       C  0.68977637  0.72621581  0.83509218     0.00300
C2214       C  0.68702663  0.71379257  0.82802388    -0.08200
C2215       C  0.67390408  0.71084764  0.81993608     0.62200
H2216       H  0.69521616  0.69484923  0.82214657     0.12900
H2217       H  0.70376411  0.73810587  0.84819123     0.12900
C2218       C  0.72464213  0.72180166  0.85165631     0.62500
F2219       F  0.67330625  0.69827488  0.81352029    -0.22700
F2220       F  0.67157514  0.71944000  0.80656531    -0.20000
F2221       F  0.66422367  0.71215002  0.83209084    -0.19700
F2222       F  0.73441957  0.72233228  0.83953272    -0.19800
F2223       F  0.72740393  0.71203469  0.86339229    -0.20100
F2224       F  0.72449185  0.73356629  0.86034562    -0.22800
C2225       C  0.79921676  0.67793399  0.75274387    -0.05600
C2226       C  0.79911468  0.68229453  0.76978706     0.00300
C2227       C  0.80745857  0.69262700  0.77480214    -0.08200
C2228       C  0.81470475  0.69918443  0.76213313    -0.05600
C2229       C  0.81391573  0.69555804  0.74484985     0.00300
C2230       C  0.80655679  0.68445845  0.74009062    -0.08200
C2231       C  0.80609027  0.67996703  0.72157845     0.62200
H2232       H  0.79285747  0.66992889  0.74921178     0.12900
H2233       H  0.82049786  0.70765461  0.76547866     0.12900
C2234       C  0.80856865  0.69674418  0.79344144     0.62500
F2235       F  0.79897580  0.66856660  0.71973467    -0.22700
F2236       F  0.81860212  0.67767420  0.71583528    -0.20000
F2237       F  0.80041952  0.68949428  0.71144460    -0.19700
F2238       F  0.81206876  0.68608530  0.80333869    -0.19800
F2239       F  0.79680940  0.70154176  0.79918539    -0.20100
F2240       F  0.81788767  0.70636987  0.79570918    -0.22800
C2241       C  0.99186559  0.27049516  0.38739409    -0.05600
C2242       C  0.98505540  0.28225458  0.38928618     0.00300
C2243       C  0.99205250  0.29413252  0.39049280    -0.08200
C2244       C  0.00575497  0.29377590  0.39073531    -0.05600
C2245       C  0.01255166  0.28194169  0.39004821     0.00300
C2246       C  0.00558568  0.27012371  0.38786905    -0.08200
C2247       C  0.01263647  0.25715745  0.38703073     0.62200
H2248       H  0.98632295  0.26150941  0.38663621     0.12900
H2249       H  0.01127581  0.30268793  0.39255096     0.12900
C2250       C  0.98502249  0.30703754  0.39239790     0.62500
F2251       F  0.00410462  0.24683064  0.38470185    -0.22700
F2252       F  0.01942778  0.25506116  0.40213053    -0.20000
F2253       F  0.02127024  0.25728572  0.37345420    -0.19700
F2254       F  0.97823679  0.30717095  0.40769164    -0.19800
F2255       F  0.97639273  0.30867600  0.37892323    -0.20100
F2256       F  0.99357426  0.31750235  0.39237313    -0.22800
C2257       C  0.98432147  0.27735108  0.64289830    -0.05600
C2258       C  0.97877904  0.28819615  0.63464287     0.00300
C2259       C  0.98694531  0.29830649  0.62845723    -0.08200
C2260       C  0.00047181  0.29642367  0.62870289    -0.05600
C2261       C  0.00598697  0.28496238  0.63528074     0.00300
C2262       C  0.99793314  0.27556983  0.64338186    -0.08200
C2263       C  0.00365774  0.26342387  0.65156503     0.62200
H2264       H  0.97789697  0.26983766  0.64782322     0.12900
H2265       H  0.00684160  0.30361985  0.62289626     0.12900
C2266       C  0.98139938  0.31098686  0.62148710     0.62500
F2267       F  0.99414064  0.25554991  0.65874501    -0.22700
F2268       F  0.01222926  0.26696700  0.66444490    -0.20000
F2269       F  0.01021932  0.25623147  0.63935922    -0.19700
F2270       F  0.97248640  0.31596705  0.63299903    -0.19800
F2271       F  0.97531847  0.30889196  0.60591245    -0.20100
F2272       F  0.99102201  0.32028389  0.61903637    -0.22800
C2273       C  0.90673108  0.28093869  0.51896103    -0.05600
C2274       C  0.91479791  0.27206415  0.52762160     0.00300
C2275       C  0.92215008  0.26294170  0.51810375    -0.08200
C2276       C  0.92183558  0.26361991  0.50008606    -0.05600
C2277       C  0.91430097  0.27292796  0.49135078     0.00300
C2278       C  0.90636137  0.28158902  0.50088040    -0.08200
C2279       C  0.89798539  0.29183210  0.49214130     0.62200
H2280       H  0.90106063  0.28769116  0.52653770     0.12900
H2281       H  0.92777337  0.25703396  0.49260564     0.12900
C2282       C  0.93018282  0.25243318  0.52688715     0.62500
F2283       F  0.89212109  0.30004255  0.50387808    -0.22700
F2284       F  0.88824843  0.28581311  0.48280082    -0.20000
F2285       F  0.90552594  0.29940809  0.48130741    -0.19700
F2286       F  0.92260248  0.24585303  0.53874630    -0.19800
F2287       F  0.94073448  0.25798289  0.53513322    -0.20100
F2288       F  0.93484513  0.24338043  0.51528037    -0.22800
C2289       C  0.80878501  0.33097654  0.25621050    -0.05600
C2290       C  0.80830810  0.32621948  0.23935961     0.00300
C2291       C  0.81617896  0.31545079  0.23476325    -0.08200
C2292       C  0.82331676  0.30895907  0.24766840    -0.05600
C2293       C  0.82291917  0.31305820  0.26480740     0.00300
C2294       C  0.81600685  0.32452135  0.26909121    -0.08200
C2295       C  0.81588604  0.32952333  0.28737457     0.62200
H2296       H  0.80279504  0.33929324  0.25944523     0.12900
H2297       H  0.82871901  0.30020276  0.24463417     0.12900
C2298       C  0.81693410  0.31082504  0.21630788     0.62500
F2299       F  0.80902257  0.34107559  0.28879329    -0.22700
F2300       F  0.82852208  0.33177936  0.29277648    -0.20000
F2301       F  0.81016996  0.32037620  0.29805780    -0.19700
F2302       F  0.82034046  0.32118420  0.20580993    -0.19800
F2303       F  0.80503755  0.30591477  0.21108321    -0.20100
F2304       F  0.82614508  0.30111465  0.21429067    -0.22800
C2305       C  0.76397664  0.49909737  0.13918027    -0.05600
C2306       C  0.77331637  0.49271303  0.12916396     0.00300
C2307       C  0.78301675  0.50009638  0.12065524    -0.08200
C2308       C  0.78234434  0.51378292  0.12121920    -0.05600
C2309       C  0.77232534  0.52020842  0.12996404     0.00300
C2310       C  0.76323169  0.51283812  0.13961092    -0.08200
C2311       C  0.75224266  0.51942664  0.14919704     0.62200
H2312       H  0.75666166  0.49323407  0.14558383     0.12900
H2313       H  0.78921728  0.51960574  0.11394900     0.12900
C2314       C  0.79387380  0.49352274  0.11074290     0.62500
F2315       F  0.74445386  0.51048723  0.15771383    -0.22700
F2316       F  0.74451594  0.52629860  0.13777735    -0.20000
F2317       F  0.75731198  0.52791981  0.16123732    -0.19700
F2318       F  0.78887145  0.48717542  0.09655774    -0.19800
F2319       F  0.80007600  0.48455749  0.12122075    -0.20100
F2320       F  0.80307454  0.50243162  0.10508804    -0.22800
C2321       C  0.81430753  0.32260288  0.77669269    -0.05600
C2322       C  0.80361923  0.33034505  0.77195740     0.00300
C2323       C  0.80019931  0.33145957  0.75440930    -0.08200
C2324       C  0.80693239  0.32390755  0.74225456    -0.05600
C2325       C  0.81694595  0.31539844  0.74716454     0.00300
C2326       C  0.82111365  0.31511064  0.76448666    -0.08200
C2327       C  0.83223896  0.30637188  0.77008983     0.62200
H2328       H  0.81674191  0.32181280  0.79018643     0.12900
H2329       H  0.80389193  0.32398840  0.72893393     0.12900
C2330       C  0.78892282  0.33996989  0.74874229     0.62500
F2331       F  0.83521381  0.30796107  0.78729343    -0.22700
F2332       F  0.84324521  0.30934298  0.76066784    -0.20000
F2333       F  0.82893055  0.29344550  0.76741060    -0.19700
F2334       F  0.79046296  0.35241489  0.75526959    -0.19800
F2335       F  0.77736624  0.33473388  0.75469521    -0.20100
F2336       F  0.78817032  0.34094121  0.73104682    -0.22800
C2337       C  0.75532539  0.49943947  0.88052586    -0.05600
C2338       C  0.76574616  0.49209012  0.88697929     0.00300
C2339       C  0.77745274  0.49840986  0.89171012    -0.08200
C2340       C  0.77811164  0.51209437  0.89067692    -0.05600
C2341       C  0.76736715  0.51957186  0.88547122     0.00300
C2342       C  0.75585777  0.51318952  0.87987912    -0.08200
C2343       C  0.74388555  0.52084853  0.87455374     0.62200
H2344       H  0.74643721  0.49435115  0.87712769     0.12900
H2345       H  0.78677132  0.51715106  0.89505494     0.12900
C2346       C  0.78891776  0.49073331  0.89872155     0.62500
F2347       F  0.73364998  0.51272979  0.87003582    -0.22700
F2348       F  0.74676510  0.52862505  0.86055516    -0.20000
F2349       F  0.73984142  0.52861813  0.88799793    -0.19700
F2350       F  0.79245584  0.48121214  0.88710468    -0.19800
F2351       F  0.78553024  0.48487339  0.91408070    -0.20100
F2352       F  0.79963656  0.49863350  0.90166275    -0.22800
C2353       C  0.74051492  0.42832625  0.00062062    -0.05600
C2354       C  0.75211459  0.42488861  0.99234231     0.00300
C2355       C  0.76311291  0.42125479  0.00224556    -0.08200
C2356       C  0.76215864  0.42138602  0.02027839    -0.05600
C2357       C  0.75067022  0.42517982  0.02852637     0.00300
C2358       C  0.73956924  0.42845315  0.01864548    -0.08200
C2359       C  0.72676656  0.43186932  0.02717139     0.62200
H2360       H  0.73223790  0.43111029  0.99280103     0.12900
H2361       H  0.77053606  0.41897712  0.02812749     0.12900
C2362       C  0.77592578  0.41779014  0.99380026     0.62500
F2363       F  0.71699732  0.43410249  0.01525825    -0.22700
F2364       F  0.72820416  0.44300908  0.03695571    -0.20000
F2365       F  0.72290120  0.42166125  0.03764551    -0.19700
F2366       F  0.78006771  0.42804451  0.98359211    -0.19800
F2367       F  0.77431957  0.40679226  0.98379081    -0.20100
F2368       F  0.78557724  0.41523304  0.00577160    -0.22800
C2369       C  0.78916550  0.20494859  0.33430211    -0.05600
C2370       C  0.77689708  0.20924397  0.33979474     0.00300
C2371       C  0.77537030  0.22229166  0.34541422    -0.08200
C2372       C  0.78597796  0.23091645  0.34402964    -0.05600
C2373       C  0.79803370  0.22681545  0.33769688     0.00300
C2374       C  0.79984302  0.21358367  0.33313750    -0.08200
C2375       C  0.81282325  0.20877236  0.32645935     0.62200
H2376       H  0.79016913  0.19491989  0.33031318     0.12900
H2377       H  0.78488316  0.24104477  0.34758131     0.12900
C2378       C  0.76273357  0.22703960  0.35326400     0.62500
F2379       F  0.81239760  0.19566469  0.32222380    -0.22700
F2380       F  0.82228898  0.21044506  0.33889920    -0.20000
F2381       F  0.81626139  0.21574540  0.31193563    -0.19700
F2382       F  0.75909485  0.21875787  0.36645732    -0.19800
F2383       F  0.75300848  0.22734738  0.34101400    -0.20100
F2384       F  0.76398853  0.23948352  0.35996273    -0.22800
C2385       C  0.70464899  0.00035117  0.38927934    -0.05600
C2386       C  0.71630552  0.99497291  0.38326646     0.00300
C2387       C  0.72629477  0.00332857  0.37725972    -0.08200
C2388       C  0.72474600  0.01693278  0.37889808    -0.05600
C2389       C  0.71361658  0.02224814  0.38653997     0.00300
C2390       C  0.70310759  0.01394196  0.39097549    -0.08200
C2391       C  0.69045806  0.01943315  0.39784021     0.62200
H2392       H  0.69710310  0.99378801  0.39377343     0.12900
H2393       H  0.73260712  0.02346179  0.37536681     0.12900
C2394       C  0.73874622  0.99778704  0.36989762     0.62500
F2395       F  0.68092401  0.00991338  0.39915550    -0.22700
F2396       F  0.68593278  0.02906119  0.38688640    -0.20000
F2397       F  0.69245073  0.02470394  0.41393537    -0.19700
F2398       F  0.73576198  0.98956245  0.35640095    -0.19800
F2399       F  0.74534075  0.99082518  0.38239715    -0.20100
F2400       F  0.74692342  0.00750577  0.36383388    -0.22800
C2401       C  0.78305422  0.20339304  0.68772852    -0.05600
C2402       C  0.77089013  0.20761238  0.68163971     0.00300
C2403       C  0.76954970  0.22051708  0.67528235    -0.08200
C2404       C  0.78031882  0.22900379  0.67612886    -0.05600
C2405       C  0.79232178  0.22495198  0.68282341     0.00300
C2406       C  0.79384562  0.21191545  0.68852418    -0.08200
C2407       C  0.80666754  0.20722130  0.69595418     0.62200
H2408       H  0.78390678  0.19346442  0.69239201     0.12900
H2409       H  0.77940061  0.23902295  0.67182985     0.12900
C2410       C  0.75692333  0.22523686  0.66725581     0.62500
F2411       F  0.80594968  0.19437486  0.70143598    -0.22700
F2412       F  0.81011020  0.21485689  0.70985936    -0.20000
F2413       F  0.81626587  0.20809595  0.68360898    -0.19700
F2414       F  0.74719554  0.22558660  0.67943295    -0.19800
F2415       F  0.75328980  0.21689725  0.65416090    -0.20100
F2416       F  0.75817082  0.23765906  0.66040395    -0.22800
C2417       C  0.70807143  0.01173637  0.62916244    -0.05600
C2418       C  0.71932160  0.01916668  0.63220961     0.00300
C2419       C  0.73118219  0.01277880  0.63611413    -0.08200
C2420       C  0.73161740  0.99904549  0.63527724    -0.05600
C2421       C  0.72060258  0.99172881  0.63070144     0.00300
C2422       C  0.70850563  0.99803771  0.62841846    -0.08200
C2423       C  0.69627900  0.99032027  0.62433454     0.62200
H2424       H  0.69908371  0.01680479  0.62626960     0.12900
H2425       H  0.74075913  0.99396714  0.63704513     0.12900
C2426       C  0.74345564  0.02045612  0.64007579     0.62500
F2427       F  0.68529963  0.99812475  0.62451488    -0.22700
F2428       F  0.69461525  0.98054310  0.63640855    -0.20000
F2429       F  0.69733624  0.98478251  0.60824535    -0.19700
F2430       F  0.74141235  0.02826433  0.65424263    -0.19800
F2431       F  0.74671021  0.02821356  0.62618096    -0.20100
F2432       F  0.75388700  0.01234807  0.64364243    -0.22800
C2433       C  0.73255630  0.09044012  0.52286186    -0.05600
C2434       C  0.71974193  0.08929951  0.52883903     0.00300
C2435       C  0.70930442  0.08874304  0.51700059    -0.08200
C2436       C  0.71213326  0.08844249  0.49936214    -0.05600
C2437       C  0.72498497  0.08892340  0.49338069     0.00300
C2438       C  0.73538056  0.09025052  0.50519226    -0.08200
C2439       C  0.74936840  0.09098644  0.49913114     0.62200
H2440       H  0.74037149  0.09095271  0.53219438     0.12900
H2441       H  0.70432787  0.08756814  0.49005797     0.12900
C2442       C  0.69527691  0.08868076  0.52303326     0.62500
F2443       F  0.75093444  0.10170919  0.48852716    -0.22700
F2444       F  0.75244832  0.07979428  0.49015517    -0.20000
F2445       F  0.75801526  0.09216885  0.51270350    -0.19700
F2446       F  0.69304664  0.09959088  0.53300537    -0.19800
F2447       F  0.69281863  0.07759991  0.53264627    -0.20100
F2448       F  0.68660230  0.08890068  0.50940980    -0.22800
C2449       C  0.70347482  0.28463672  0.17914091    -0.05600
C2450       C  0.69173261  0.28951964  0.18555066     0.00300
C2451       C  0.69094623  0.30270363  0.19072846    -0.08200
C2452       C  0.70205492  0.31069762  0.18907855    -0.05600
C2453       C  0.71395094  0.30568357  0.18323725     0.00300
C2454       C  0.71470817  0.29245249  0.17805422    -0.08200
C2455       C  0.72726814  0.28654551  0.17143159     0.62200
H2456       H  0.70386986  0.27443956  0.17555158     0.12900
H2457       H  0.70170278  0.32080967  0.19305537     0.12900
C2458       C  0.67863042  0.30805187  0.19871615     0.62500
F2459       F  0.72538016  0.27402908  0.16523247    -0.22700
F2460       F  0.73632902  0.28584772  0.18451693    -0.20000
F2461       F  0.73217124  0.29412019  0.15822709    -0.19700
F2462       F  0.67541865  0.30074884  0.21305579    -0.19800
F2463       F  0.66853952  0.30741650  0.18698349    -0.20100
F2464       F  0.68010864  0.32091757  0.20376163    -0.22800
C2465       C  0.66904195  0.19877172  0.26302429    -0.05600
C2466       C  0.67372482  0.19827926  0.24613414     0.00300
C2467       C  0.68503328  0.19090979  0.24251224    -0.08200
C2468       C  0.69165558  0.18472587  0.25612933    -0.05600
C2469       C  0.68739561  0.18584806  0.27313050     0.00300
C2470       C  0.67579080  0.19272805  0.27668410    -0.08200
C2471       C  0.67098036  0.19415279  0.29495692     0.62200
H2472       H  0.66049513  0.20461276  0.26557808     0.12900
H2473       H  0.70062168  0.17950747  0.25373084     0.12900
C2474       C  0.69024939  0.18990758  0.22437272     0.62500
F2475       F  0.65941440  0.20102657  0.29571505    -0.22700
F2476       F  0.68016538  0.20073372  0.30466040    -0.20000
F2477       F  0.66891779  0.18193137  0.30202157    -0.19700
F2478       F  0.69391476  0.20210671  0.21848116    -0.19800
F2479       F  0.68068469  0.18490821  0.21373016    -0.20100
F2480       F  0.70098582  0.18179743  0.22348567    -0.22800
C2481       C  0.50123300  0.23742764  0.13773602    -0.05600
C2482       C  0.50797682  0.22808217  0.12811076     0.00300
C2483       C  0.50095146  0.21790421  0.12005450    -0.08200
C2484       C  0.48729273  0.21840143  0.11996107    -0.05600
C2485       C  0.48047514  0.22850714  0.12803370     0.00300
C2486       C  0.48747432  0.23770206  0.13809150    -0.08200
C2487       C  0.48055784  0.24799055  0.14861344     0.62200
H2488       H  0.50682110  0.24492918  0.14417479     0.12900
H2489       H  0.48180572  0.21120314  0.11280251     0.12900
C2490       C  0.50786590  0.20662783  0.11142604     0.62500
F2491       F  0.48925222  0.25630902  0.15669268    -0.22700
F2492       F  0.47319032  0.24197195  0.16117211    -0.20000
F2493       F  0.47254973  0.25542115  0.13819926    -0.19700
F2494       F  0.51668843  0.20115442  0.12276790    -0.19800
F2495       F  0.51438687  0.21095638  0.09701193    -0.20100
F2496       F  0.49923086  0.19695618  0.10641926    -0.22800
C2497       C  0.69299732  0.29460179  0.83120694    -0.05600
C2498       C  0.69719387  0.28277226  0.83840148     0.00300
C2499       C  0.71017945  0.28153551  0.84430237    -0.08200
C2500       C  0.71865849  0.29223541  0.84248940    -0.05600
C2501       C  0.71456291  0.30396047  0.83492193     0.00300
C2502       C  0.70156855  0.30522110  0.82906919    -0.08200
C2503       C  0.69700854  0.31741162  0.81975674     0.62200
H2504       H  0.68304734  0.29526346  0.82666711     0.12900
H2505       H  0.72868308  0.29146372  0.84670752     0.12900
C2506       C  0.71504562  0.26902246  0.85256022     0.62500
F2507       F  0.68421030  0.31632725  0.81432485    -0.22700
F2508       F  0.70469789  0.31953723  0.80547113    -0.20000
F2509       F  0.69788490  0.32806694  0.83051560    -0.19700
F2510       F  0.71561058  0.25922769  0.84044297    -0.19800
F2511       F  0.70673415  0.26527848  0.86561749    -0.20100
F2512       F  0.72737034  0.27054096  0.85951377    -0.22800
C2513       C  0.67811778  0.18690837  0.77784592    -0.05600
C2514       C  0.66804678  0.19551203  0.77338823     0.00300
C2515       C  0.66425410  0.19676797  0.75598313    -0.08200
C2516       C  0.67123745  0.18983665  0.74342630    -0.05600
C2517       C  0.68187180  0.18194098  0.74784026     0.00300
C2518       C  0.68519437  0.18012972  0.76529761    -0.08200
C2519       C  0.69669519  0.17171179  0.77048725     0.62200
H2520       H  0.68096456  0.18622514  0.79121174     0.12900
H2521       H  0.66898919  0.19117564  0.72995033     0.12900
C2522       C  0.65349297  0.20605359  0.75064935     0.62500
F2523       F  0.69817983  0.17107590  0.78812672    -0.22700
F2524       F  0.70802890  0.17680245  0.76362410    -0.20000
F2525       F  0.69489290  0.15916008  0.76445613    -0.19700
F2526       F  0.65669179  0.21864564  0.75545618    -0.19800
F2527       F  0.64199062  0.20243471  0.75851125    -0.20100
F2528       F  0.65146858  0.20597372  0.73307940    -0.22800
C2529       C  0.49762669  0.24381371  0.88345228    -0.05600
C2530       C  0.50550393  0.23269748  0.88215169     0.00300
C2531       C  0.49965478  0.22044680  0.87868934    -0.08200
C2532       C  0.48592755  0.21957666  0.87817000    -0.05600
C2533       C  0.47804821  0.23060915  0.88052892     0.00300
C2534       C  0.48396106  0.24301058  0.88243424    -0.08200
C2535       C  0.47580710  0.25528866  0.88379148     0.62200
H2536       H  0.50228907  0.25311177  0.88594282     0.12900
H2537       H  0.48122359  0.21017179  0.87673517     0.12900
C2538       C  0.50787330  0.20830333  0.87639446     0.62500
F2539       F  0.48344362  0.26633259  0.88576397    -0.22700
F2540       F  0.46755296  0.25445382  0.89773423    -0.20000
F2541       F  0.46850195  0.25675480  0.86898807    -0.19700
F2542       F  0.51512309  0.20599981  0.89106552    -0.19800
F2543       F  0.51618271  0.21002567  0.86264687    -0.20100
F2544       F  0.50030741  0.19737693  0.87319267    -0.22800
C2545       C  0.57936519  0.23958113  0.99628423    -0.05600
C2546       C  0.57218605  0.24973560  0.98879346     0.00300
C2547       C  0.56687058  0.25957332  0.99933990    -0.08200
C2548       C  0.56796947  0.25829102  0.01728630    -0.05600
C2549       C  0.57461623  0.24778617  0.02490608     0.00300
C2550       C  0.58076802  0.23844486  0.01424074    -0.08200
C2551       C  0.58844034  0.22711609  0.02167576     0.62200
H2552       H  0.58361392  0.23234594  0.98790013     0.12900
H2553       H  0.56343846  0.26541943  0.02557535     0.12900
C2554       C  0.56036846  0.27151358  0.99160543     0.62500
F2555       F  0.59248040  0.21854112  0.00907931    -0.22700
F2556       F  0.58086170  0.22021716  0.03321534    -0.20000
F2557       F  0.59941133  0.23179899  0.02990642    -0.19700
F2558       F  0.54894342  0.26796682  0.98346148    -0.19800
F2559       F  0.56863989  0.27728887  0.97981890    -0.20100
F2560       F  0.55741172  0.28071067  0.00396236    -0.22800
loop_ 
_geom_bond_atom_site_label_1 
_geom_bond_atom_site_label_2 
_geom_bond_distance 
_geom_bond_site_symmetry_2 
_ccdc_geom_bond_type 
N1            N2   1.324       .  A
N1            C5   1.353       .  A
N1           Cu9   2.104       .  S
N2            C3   1.343       .  A
N2           Cu8   2.075       .  S
C3            C4   1.380       .  A
C3            H6   1.082       .  S
C4            C5   1.390       .  A
C4         C2530   1.486       .  S
C5            H7   1.081       .  S
Cu8          N11   2.075       .  S
Cu9          N19   2.104       .  S
Cu10         N12   2.077       .  S
Cu10         N18   2.078       .  S
N11          N12   1.320       .  A
N11          C15   1.345       .  A
N12          C13   1.348       .  A
C13          C14   1.385       .  A
C13          H16   1.082       .  S
C14          C15   1.385       .  A
C14        C2546   1.482       .  S
C15          H17   1.082       .  S
N18          N19   1.325       .  A
N18          C22   1.344       .  A
N19          C20   1.351       .  A
C20          C21   1.388       .  A
C20          H23   1.082       .  S
C21          C22   1.381       .  A
C21          C45   1.477       .  S
C22          H24   1.082       .  S
N25          N26   1.323       .  A
N25          C29   1.353       .  A
N25         Cu33   2.100       .  S
N26          C27   1.339       .  A
N26         Cu32   2.057       .  S
C27          C28   1.377       .  A
C27          H30   1.082       .  S
C28          C29   1.390       .  A
C28        C2514   1.479       .  S
C29          H31   1.082       .  S
Cu32         N35   2.056       .  S
Cu33         N43   2.101       .  S
Cu34         N36   2.082       .  S
Cu34         N42   2.084       .  S
N35          N36   1.320       .  A
N35          C39   1.342       .  A
N36          C37   1.348       .  A
C37          C38   1.387       .  A
C37          H40   1.082       .  S
C38          C39   1.380       .  A
C38        C2498   1.477       .  S
C39          H41   1.082       .  S
N42          N43   1.326       .  A
N42          C46   1.345       .  A
N43          C44   1.351       .  A
C44          C45   1.386       .  A
C44          H47   1.082       .  S
C45          C46   1.382       .  A
C46          H48   1.082       .  S
N49          N50   1.324       .  A
N49          C53   1.354       .  A
N49         Cu57   2.106       .  S
N50          C51   1.341       .  A
N50         Cu56   2.067       .  S
C51          C52   1.378       .  A
C51          H54   1.082       .  S
C52          C53   1.390       .  A
C52        C2482   1.482       .  S
C53          H55   1.082       .  S
Cu56         N59   2.067       .  S
Cu57         N67   2.108       .  S
Cu58         N60   2.093       .  S
Cu58         N66   2.095       .  S
N59          N60   1.320       .  A
N59          C63   1.344       .  A
N60          C61   1.350       .  A
C61          C62   1.391       .  A
C61          H64   1.080       .  S
C62          C63   1.383       .  A
C62        C2549   1.489       .  S
C63          H65   1.082       .  S
N66          N67   1.326       .  A
N66          C70   1.347       .  A
N67          C68   1.353       .  A
C68          C69   1.388       .  A
C68          H71   1.082       .  S
C69          C70   1.383       .  A
C69          C93   1.481       .  S
C70          H72   1.082       .  S
N73          N74   1.322       .  A
N73          C77   1.355       .  A
N73         Cu81   2.116       .  S
N74          C75   1.341       .  A
N74         Cu80   2.055       .  S
C75          C76   1.376       .  A
C75          H78   1.082       .  S
C76          C77   1.393       .  A
C76        C2466   1.483       .  S
C77          H79   1.082       .  S
Cu80         N83   2.054       .  S
Cu81         N91   2.118       .  S
Cu82         N84   2.089       .  S
Cu82         N90   2.091       .  S
N83          N84   1.320       .  A
N83          C87   1.341       .  A
N84          C85   1.351       .  A
C85          C86   1.389       .  A
C85          H88   1.082       .  S
C86          C87   1.379       .  A
C86        C2450   1.477       .  S
C87          H89   1.082       .  S
N90          N91   1.327       .  A
N90          C94   1.346       .  A
N91          C92   1.354       .  A
C92          C93   1.389       .  A
C92          H95   1.082       .  S
C93          C94   1.381       .  A
C94          H96   1.082       .  S
N97          N98   1.323       .  A
N97         C101   1.351       .  A
N97        Cu105   2.094       .  S
N98          C99   1.342       .  A
N98        Cu104   2.070       .  S
C99         C100   1.379       .  A
C99         H102   1.082       .  S
C100        C101   1.387       .  A
C100       C2418   1.480       .  S
C101        H103   1.082       .  S
Cu104       N107   2.069       .  S
Cu105       N115   2.095       .  S
Cu106       N108   2.075       .  S
Cu106       N114   2.076       .  S
N107        N108   1.321       .  A
N107        C111   1.343       .  A
N108        C109   1.347       .  A
C109        C110   1.384       .  A
C109        H112   1.082       .  S
C110        C111   1.382       .  A
C110       C2434   1.476       .  S
C111        H113   1.082       .  S
N114        N115   1.325       .  A
N114        C118   1.344       .  A
N115        C116   1.350       .  A
C116        C117   1.386       .  A
C116        H119   1.082       .  S
C117        C118   1.380       .  A
C117        C141   1.473       .  S
C118        H120   1.082       .  S
N121        N122   1.323       .  A
N121        C125   1.350       .  A
N121       Cu129   2.089       .  S
N122        C123   1.341       .  A
N122       Cu128   2.069       .  S
C123        C124   1.378       .  A
C123        H126   1.082       .  S
C124        C125   1.386       .  A
C124       C2517   1.476       .  S
C125        H127   1.082       .  S
Cu128       N131   2.069       .  S
Cu129       N139   2.090       .  S
Cu130       N132   2.087       .  S
Cu130       N138   2.088       .  S
N131        N132   1.320       .  A
N131        C135   1.344       .  A
N132        C133   1.349       .  A
C133        C134   1.388       .  A
C133        H136   1.082       .  S
C134        C135   1.384       .  A
C134       C2402   1.484       .  S
C135        H137   1.082       .  S
N138        N139   1.325       .  A
N138        C142   1.345       .  A
N139        C140   1.350       .  A
C140        C141   1.384       .  A
C140        H143   1.082       .  S
C141        C142   1.381       .  A
C142        H144   1.082       .  S
N145        N146   1.323       .  A
N145        C149   1.352       .  A
N145       Cu153   2.098       .  S
N146        C147   1.343       .  A
N146       Cu152   2.070       .  S
C147        C148   1.381       .  A
C147        H150   1.082       .  S
C148        C149   1.388       .  A
C148       C2389   1.481       .  S
C149        H151   1.082       .  S
Cu152       N155   2.069       .  S
Cu153       N163   2.099       .  S
Cu154       N156   2.088       .  S
Cu154       N162   2.090       .  S
N155        N156   1.321       .  A
N155        C159   1.344       .  A
N156        C157   1.349       .  A
C157        C158   1.386       .  A
C157        H160   1.081       .  S
C158        C159   1.381       .  A
C158       C2437   1.477       .  S
C159        H161   1.078       .  S
N162        N163   1.325       .  A
N162        C166   1.347       .  A
N163        C164   1.351       .  A
C164        C165   1.386       .  A
C164        H167   1.082       .  S
C165        C166   1.383       .  A
C165        C189   1.479       .  S
C166        H168   1.082       .  S
N169        N170   1.323       .  A
N169        C173   1.353       .  A
N169       Cu177   2.104       .  S
N170        C171   1.342       .  A
N170       Cu176   2.066       .  S
C171        C172   1.378       .  A
C171        H174   1.082       .  S
C172        C173   1.389       .  A
C172       C2469   1.481       .  S
C173        H175   1.082       .  S
Cu176       N179   2.066       .  S
Cu177       N187   2.105       .  S
Cu178       N180   2.088       .  S
Cu178       N186   2.089       .  S
N179        N180   1.320       .  A
N179        C183   1.345       .  A
N180        C181   1.350       .  A
C181        C182   1.387       .  A
C181        H184   1.081       .  S
C182        C183   1.384       .  A
C182       C2370   1.482       .  S
C183        H185   1.066       .  S
N186        N187   1.326       .  A
N186        C190   1.346       .  A
N187        C188   1.351       .  A
C188        C189   1.387       .  A
C188        H191   1.082       .  S
C189        C190   1.382       .  A
C190        H192   1.082       .  S
N193        N194   1.323       .  A
N193        C197   1.350       .  A
N193       Cu201   2.090       .  S
N194        C195   1.342       .  A
N194       Cu200   2.067       .  S
C195        C196   1.379       .  A
C195        H198   1.082       .  S
C196        C197   1.386       .  A
C196       C2338   1.476       .  S
C197        H199   1.082       .  S
Cu200       N203   2.067       .  S
Cu201       N211   2.090       .  S
Cu202       N204   2.095       .  S
Cu202       N210   2.096       .  S
N203        N204   1.322       .  A
N203        C207   1.344       .  A
N204        C205   1.350       .  A
C205        C206   1.388       .  A
C205        H208   1.082       .  S
C206        C207   1.381       .  A
C206       C2354   1.481       .  S
C207        H209   1.082       .  S
N210        N211   1.325       .  A
N210        C214   1.347       .  A
N211        C212   1.350       .  A
C212        C213   1.384       .  A
C212        H215   1.082       .  S
C213        C214   1.385       .  A
C213        C237   1.479       .  S
C214        H216   1.082       .  S
N217        N218   1.324       .  A
N217        C221   1.355       .  A
N217       Cu225   2.116       .  S
N218        C219   1.340       .  A
N218       Cu224   2.059       .  S
C219        C220   1.376       .  A
C219        H222   1.082       .  S
C220        C221   1.393       .  A
C220       C2322   1.483       .  S
C221        H223   1.082       .  S
Cu224       N227   2.059       .  S
Cu225       N235   2.117       .  S
Cu226       N228   2.076       .  S
Cu226       N234   2.078       .  S
N227        N228   1.319       .  A
N227        C231   1.343       .  A
N228        C229   1.347       .  A
C229        C230   1.386       .  A
C229        H232   1.082       .  S
C230        C231   1.381       .  A
C230       C2501   1.477       .  S
C231        H233   1.082       .  S
N234        N235   1.326       .  A
N234        C238   1.345       .  A
N235        C236   1.353       .  A
C236        C237   1.389       .  A
C236        H239   1.082       .  S
C237        C238   1.379       .  A
C238        H240   1.082       .  S
N241        N242   1.323       .  A
N241        C245   1.352       .  A
N241       Cu249   2.096       .  S
N242        C243   1.340       .  A
N242       Cu248   2.063       .  S
C243        C244   1.377       .  A
C243        H246   1.082       .  S
C244        C245   1.388       .  A
C244       C2306   1.478       .  S
C245        H247   1.082       .  S
Cu248       N251   2.062       .  S
Cu249       N259   2.098       .  S
Cu250       N252   2.083       .  S
Cu250       N258   2.085       .  S
N251        N252   1.320       .  A
N251        C255   1.343       .  A
N252        C253   1.349       .  A
C253        C254   1.387       .  A
C253        H256   1.082       .  S
C254        C255   1.381       .  A
C254       C2357   1.479       .  S
C255        H257   1.082       .  S
N258        N259   1.326       .  A
N258        C262   1.344       .  A
N259        C260   1.351       .  A
C260        C261   1.386       .  A
C260        H263   1.082       .  S
C261        C262   1.381       .  A
C261        C285   1.475       .  S
C262        H264   1.082       .  S
N265        N266   1.323       .  A
N265        C269   1.353       .  A
N265       Cu273   2.103       .  S
N266        C267   1.342       .  A
N266       Cu272   2.067       .  S
C267        C268   1.379       .  A
C267        H270   1.082       .  S
C268        C269   1.390       .  A
C268       C2290   1.483       .  S
C269        H271   1.082       .  S
Cu272       N275   2.066       .  S
Cu273       N283   2.104       .  S
Cu274       N276   2.079       .  S
Cu274       N282   2.080       .  S
N275        N276   1.320       .  A
N275        C279   1.343       .  A
N276        C277   1.348       .  A
C277        C278   1.387       .  A
C277        H280   1.082       .  S
C278        C279   1.383       .  A
C278       C2453   1.481       .  S
C279        H281   1.081       .  S
N282        N283   1.326       .  A
N282        C286   1.343       .  A
N283        C284   1.352       .  A
C284        C285   1.387       .  A
C284        H287   1.082       .  S
C285        C286   1.380       .  A
C286        H288   1.082       .  S
N289        N290   1.322       .  A
N289        C293   1.352       .  A
N289       Cu297   2.095       .  S
N290        C291   1.344       .  A
N290       Cu296   2.073       .  S
C291        C292   1.381       .  A
C291        H294   1.082       .  S
C292        C293   1.388       .  A
C292       C2325   1.483       .  S
C293        H295   1.082       .  S
Cu296       N299   2.072       .  S
Cu297       N307   2.096       .  S
Cu298       N300   2.089       .  S
Cu298       N306   2.091       .  S
N299        N300   1.322       .  A
N299        C303   1.343       .  A
N300        C301   1.351       .  A
C301        C302   1.388       .  A
C301        H304   1.082       .  S
C302        C303   1.381       .  A
C302       C2405   1.481       .  S
C303        H305   1.082       .  S
N306        N307   1.326       .  A
N306        C310   1.346       .  A
N307        C308   1.349       .  A
C308        C309   1.384       .  A
C308        H311   1.082       .  S
C309        C310   1.382       .  A
C309        C333   1.475       .  S
C310        H312   1.082       .  S
N313        N314   1.322       .  A
N313        C317   1.353       .  A
N313       Cu321   2.095       .  S
N314        C315   1.338       .  A
N314       Cu320   2.058       .  S
C315        C316   1.377       .  A
C315        H318   1.082       .  S
C316        C317   1.390       .  A
C316       C2258   1.479       .  S
C317        H319   1.082       .  S
Cu320       N323   2.059       .  S
Cu321       N331   2.097       .  S
Cu322       N324   2.087       .  S
Cu322       N330   2.088       .  S
N323        N324   1.320       .  A
N323        C327   1.342       .  A
N324        C325   1.349       .  A
C325        C326   1.388       .  A
C325        H328   1.082       .  S
C326        C327   1.381       .  A
C326       C2274   1.481       .  S
C327        H329   1.082       .  S
N330        N331   1.326       .  A
N330        C334   1.345       .  A
N331        C332   1.350       .  A
C332        C333   1.385       .  A
C332        H335   1.082       .  S
C333        C334   1.381       .  A
C334        H336   1.082       .  S
N337        N338   1.324       .  A
N337        C341   1.354       .  A
N337       Cu345   2.109       .  S
N338        C339   1.342       .  A
N338       Cu344   2.065       .  S
C339        C340   1.377       .  A
C339        H342   1.082       .  S
C340        C341   1.390       .  A
C340       C2293   1.482       .  S
C341        H343   1.082       .  S
Cu344       N347   2.064       .  S
Cu345       N355   2.110       .  S
Cu346       N348   2.078       .  S
Cu346       N354   2.080       .  S
N347        N348   1.320       .  A
N347        C351   1.343       .  A
N348        C349   1.349       .  A
C349        C350   1.386       .  A
C349        H352   1.082       .  S
C350        C351   1.381       .  A
C350       C2373   1.478       .  S
C351        H353   1.082       .  S
N354        N355   1.326       .  A
N354        C358   1.343       .  A
N355        C356   1.353       .  A
C356        C357   1.389       .  A
C356        H359   1.082       .  S
C357        C358   1.380       .  A
C357        C381   1.479       .  S
C358        H360   1.082       .  S
N361        N362   1.324       .  A
N361        C365   1.354       .  A
N361       Cu369   2.107       .  S
N362        C363   1.342       .  A
N362       Cu368   2.069       .  S
C363        C364   1.378       .  A
C363        H366   1.082       .  S
C364        C365   1.389       .  A
C364       C2242   1.481       .  S
C365        H367   1.082       .  S
Cu368       N371   2.068       .  S
Cu369       N379   2.108       .  S
Cu370       N372   2.080       .  S
Cu370       N378   2.082       .  S
N371        N372   1.320       .  A
N371        C375   1.343       .  A
N372        C373   1.349       .  A
C373        C374   1.389       .  A
C373        H376   1.080       .  S
C374        C375   1.384       .  A
C374       C2277   1.485       .  S
C375        H377   1.082       .  S
N378        N379   1.326       .  A
N378        C382   1.344       .  A
N379        C380   1.353       .  A
C380        C381   1.388       .  A
C380        H383   1.082       .  S
C381        C382   1.381       .  A
C382        H384   1.082       .  S
N385        N386   1.323       .  A
N385        C389   1.351       .  A
N385       Cu393   2.089       .  S
N386        C387   1.342       .  A
N386       Cu392   2.070       .  S
C387        C388   1.379       .  A
C387        H390   1.082       .  S
C388        C389   1.386       .  A
C388       C2226   1.478       .  S
C389        H391   1.082       .  S
Cu392       N395   2.070       .  S
Cu393       N403   2.090       .  S
Cu394       N396   2.085       .  S
Cu394       N402   2.087       .  S
N395        N396   1.322       .  A
N395        C399   1.344       .  A
N396        C397   1.349       .  A
C397        C398   1.385       .  A
C397        H400   1.082       .  S
C398        C399   1.381       .  A
C398       C2210   1.479       .  S
C399        H401   1.082       .  S
N402        N403   1.325       .  A
N402        C406   1.346       .  A
N403        C404   1.349       .  A
C404        C405   1.384       .  A
C404        H407   1.082       .  S
C405        C406   1.382       .  A
C405        C429   1.474       .  S
C406        H408   1.082       .  S
N409        N410   1.322       .  A
N409        C413   1.352       .  A
N409       Cu417   2.098       .  S
N410        C411   1.340       .  A
N410       Cu416   2.062       .  S
C411        C412   1.379       .  A
C411        H414   1.082       .  S
C412        C413   1.390       .  A
C412       C2341   1.482       .  S
C413        H415   1.081       .  S
Cu416       N419   2.062       .  S
Cu417       N427   2.099       .  S
Cu418       N420   2.077       .  S
Cu418       N426   2.078       .  S
N419        N420   1.321       .  A
N419        C423   1.343       .  A
N420        C421   1.347       .  A
C421        C422   1.385       .  A
C421        H424   1.081       .  S
C422        C423   1.380       .  A
C422       C2194   1.476       .  S
C423        H425   1.082       .  S
N426        N427   1.325       .  A
N426        C430   1.345       .  A
N427        C428   1.350       .  A
C428        C429   1.386       .  A
C428        H431   1.082       .  S
C429        C430   1.381       .  A
C430        H432   1.082       .  S
N433        N434   1.322       .  A
N433        C437   1.352       .  A
N433       Cu441   2.093       .  S
N434        C435   1.340       .  A
N434       Cu440   2.058       .  S
C435        C436   1.378       .  A
C435        H438   1.082       .  S
C436        C437   1.389       .  A
C436       C2178   1.478       .  S
C437        H439   1.082       .  S
Cu440       N443   2.058       .  S
Cu441       N451   2.094       .  S
Cu442       N444   2.082       .  S
Cu442       N450   2.083       .  S
N443        N444   1.320       .  A
N443        C447   1.342       .  A
N444        C445   1.348       .  A
C445        C446   1.387       .  A
C445        H448   1.082       .  S
C446        C447   1.381       .  A
C446       C2162   1.479       .  S
C447        H449   1.081       .  S
N450        N451   1.326       .  A
N450        C454   1.344       .  A
N451        C452   1.350       .  A
C452        C453   1.385       .  A
C452        H455   1.082       .  S
C453        C454   1.381       .  A
C453        C477   1.472       .  S
C454        H456   1.082       .  S
N457        N458   1.322       .  A
N457        C461   1.352       .  A
N457       Cu465   2.097       .  S
N458        C459   1.339       .  A
N458       Cu464   2.053       .  S
C459        C460   1.377       .  A
C459        H462   1.082       .  S
C460        C461   1.390       .  A
C460       C2309   1.480       .  S
C461        H463   1.081       .  S
Cu464       N467   2.052       .  S
Cu465       N475   2.098       .  S
Cu466       N468   2.077       .  S
Cu466       N474   2.079       .  S
N467        N468   1.320       .  A
N467        C471   1.341       .  A
N468        C469   1.348       .  A
C469        C470   1.385       .  A
C469        H472   1.082       .  S
C470        C471   1.378       .  A
C470       C2197   1.472       .  S
C471        H473   1.082       .  S
N474        N475   1.326       .  A
N474        C478   1.343       .  A
N475        C476   1.351       .  A
C476        C477   1.386       .  A
C476        H479   1.082       .  S
C477        C478   1.379       .  A
C478        H480   1.082       .  S
N481        N482   1.323       .  A
N481        C485   1.351       .  A
N481       Cu489   2.092       .  S
N482        C483   1.341       .  A
N482       Cu488   2.062       .  S
C483        C484   1.377       .  A
C483        H486   1.082       .  S
C484        C485   1.386       .  A
C484       C2229   1.475       .  S
C485        H487   1.082       .  S
Cu488       N491   2.062       .  S
Cu489       N499   2.093       .  S
Cu490       N492   2.076       .  S
Cu490       N498   2.078       .  S
N491        N492   1.320       .  A
N491        C495   1.342       .  A
N492        C493   1.348       .  A
C493        C494   1.387       .  A
C493        H496   1.081       .  S
C494        C495   1.382       .  A
C494       C2146   1.479       .  S
C495        H497   1.082       .  S
N498        N499   1.325       .  A
N498        C502   1.343       .  A
N499        C500   1.350       .  A
C500        C501   1.385       .  A
C500        H503   1.082       .  S
C501        C502   1.380       .  A
C501        C525   1.472       .  S
C502        H504   1.082       .  S
N505        N506   1.323       .  A
N505        C509   1.352       .  A
N505       Cu513   2.099       .  S
N506        C507   1.342       .  A
N506       Cu512   2.065       .  S
C507        C508   1.378       .  A
C507        H510   1.082       .  S
C508        C509   1.390       .  A
C508       C2114   1.482       .  S
C509        H511   1.081       .  S
Cu512       N515   2.064       .  S
Cu513       N523   2.100       .  S
Cu514       N516   2.074       .  S
Cu514       N522   2.075       .  S
N515        N516   1.320       .  A
N515        C519   1.342       .  A
N516        C517   1.348       .  A
C517        C518   1.386       .  A
C517        H520   1.081       .  S
C518        C519   1.381       .  A
C518       C2130   1.478       .  S
C519        H521   1.082       .  S
N522        N523   1.326       .  A
N522        C526   1.343       .  A
N523        C524   1.351       .  A
C524        C525   1.386       .  A
C524        H527   1.082       .  S
C525        C526   1.379       .  A
C526        H528   1.082       .  S
N529        N530   1.322       .  A
N529        C533   1.351       .  A
N529       Cu537   2.094       .  S
N530        C531   1.342       .  A
N530       Cu536   2.067       .  S
C531        C532   1.381       .  A
C531        H534   1.082       .  S
C532        C533   1.390       .  A
C532       C2181   1.484       .  S
C533        H535   1.081       .  S
Cu536       N539   2.067       .  S
Cu537       N547   2.095       .  S
Cu538       N540   2.085       .  S
Cu538       N546   2.086       .  S
N539        N540   1.322       .  A
N539        C543   1.344       .  A
N540        C541   1.349       .  A
C541        C542   1.386       .  A
C541        H544   1.082       .  S
C542        C543   1.380       .  A
C542       C2098   1.478       .  S
C543        H545   1.082       .  S
N546        N547   1.326       .  A
N546        C550   1.346       .  A
N547        C548   1.348       .  A
C548        C549   1.384       .  A
C548        H551   1.082       .  S
C549        C550   1.382       .  A
C549        C573   1.474       .  S
C550        H552   1.082       .  S
N553        N554   1.322       .  A
N553        C557   1.351       .  A
N553       Cu561   2.090       .  S
N554        C555   1.341       .  A
N554       Cu560   2.062       .  S
C555        C556   1.378       .  A
C555        H558   1.082       .  S
C556        C557   1.388       .  A
C556       C2082   1.478       .  S
C557        H559   1.082       .  S
Cu560       N563   2.063       .  S
Cu561       N571   2.091       .  S
Cu562       N564   2.085       .  S
Cu562       N570   2.086       .  S
N563        N564   1.321       .  A
N563        C567   1.342       .  A
N564        C565   1.349       .  A
C565        C566   1.386       .  A
C565        H568   1.082       .  S
C566        C567   1.381       .  A
C566       C2133   1.479       .  S
C567        H569   1.081       .  S
N570        N571   1.325       .  A
N570        C574   1.346       .  A
N571        C572   1.348       .  A
C572        C573   1.384       .  A
C572        H575   1.082       .  S
C573        C574   1.382       .  A
C574        H576   1.082       .  S
N577        N578   1.323       .  A
N577        C581   1.353       .  A
N577       Cu585   2.103       .  S
N578        C579   1.342       .  A
N578       Cu584   2.068       .  S
C579        C580   1.380       .  A
C579        H582   1.082       .  S
C580        C581   1.389       .  A
C580       C2066   1.482       .  S
C581        H583   1.082       .  S
Cu584       N587   2.068       .  S
Cu585       N595   2.103       .  S
Cu586       N588   2.072       .  S
Cu586       N594   2.073       .  S
N587        N588   1.321       .  A
N587        C591   1.343       .  A
N588        C589   1.347       .  A
C589        C590   1.382       .  A
C589        H592   1.082       .  S
C590        C591   1.381       .  A
C590       C2149   1.474       .  S
C591        H593   1.082       .  S
N594        N595   1.325       .  A
N594        C598   1.344       .  A
N595        C596   1.350       .  A
C596        C597   1.387       .  A
C596        H599   1.082       .  S
C597        C598   1.380       .  A
C597        C621   1.476       .  S
C598        H600   1.082       .  S
N601        N602   1.323       .  A
N601        C605   1.351       .  A
N601       Cu609   2.091       .  S
N602        C603   1.341       .  A
N602       Cu608   2.067       .  S
C603        C604   1.378       .  A
C603        H606   1.082       .  S
C604        C605   1.386       .  A
C604       C2421   1.476       .  S
C605        H607   1.082       .  S
Cu608       N611   2.066       .  S
Cu609       N619   2.091       .  S
Cu610       N612   2.084       .  S
Cu610       N618   2.085       .  S
N611        N612   1.321       .  A
N611        C615   1.344       .  A
N612        C613   1.348       .  A
C613        C614   1.385       .  A
C613        H616   1.082       .  S
C614        C615   1.381       .  A
C614       C2050   1.476       .  S
C615        H617   1.082       .  S
N618        N619   1.325       .  A
N618        C622   1.345       .  A
N619        C620   1.349       .  A
C620        C621   1.385       .  A
C620        H623   1.082       .  S
C621        C622   1.383       .  A
C622        H624   1.082       .  S
N625        N626   1.323       .  A
N625        C629   1.353       .  A
N625       Cu633   2.106       .  S
N626        C627   1.341       .  A
N626       Cu632   2.065       .  S
C627        C628   1.379       .  A
C627        H630   1.082       .  S
C628        C629   1.391       .  A
C628       C2037   1.485       .  S
C629        H631   1.082       .  S
Cu632       N635   2.064       .  S
Cu633       N643   2.107       .  S
Cu634       N636   2.080       .  S
Cu634       N642   2.082       .  S
N635        N636   1.320       .  A
N635        C639   1.343       .  A
N636        C637   1.349       .  A
C637        C638   1.386       .  A
C637        H640   1.082       .  S
C638        C639   1.380       .  A
C638       C2101   1.476       .  S
C639        H641   1.082       .  S
N642        N643   1.326       .  A
N642        C646   1.343       .  A
N643        C644   1.353       .  A
C644        C645   1.388       .  A
C644        H647   1.082       .  S
C645        C646   1.380       .  A
C645        C669   1.477       .  S
C646        H648   1.082       .  S
N649        N650   1.324       .  A
N649        C653   1.354       .  A
N649       Cu657   2.107       .  S
N650        C651   1.340       .  A
N650       Cu656   2.063       .  S
C651        C652   1.376       .  A
C651        H654   1.082       .  S
C652        C653   1.390       .  A
C652       C2386   1.479       .  S
C653        H655   1.082       .  S
Cu656       N659   2.062       .  S
Cu657       N667   2.107       .  S
Cu658       N660   2.077       .  S
Cu658       N666   2.078       .  S
N659        N660   1.320       .  A
N659        C663   1.344       .  A
N660        C661   1.348       .  A
C661        C662   1.385       .  A
C661        H664   1.082       .  S
C662        C663   1.381       .  A
C662       C2053   1.476       .  S
C663        H665   1.082       .  S
N666        N667   1.326       .  A
N666        C670   1.343       .  A
N667        C668   1.353       .  A
C668        C669   1.388       .  A
C668        H671   1.082       .  S
C669        C670   1.380       .  A
C670        H672   1.082       .  S
N673        N674   1.323       .  A
N673        C677   1.354       .  A
N673       Cu681   2.104       .  S
N674        C675   1.342       .  A
N674       Cu680   2.070       .  S
C675        C676   1.378       .  A
C675        H678   1.082       .  S
C676        C677   1.391       .  A
C676       C2002   1.485       .  S
C677        H679   1.082       .  S
Cu680       N683   2.070       .  S
Cu681       N691   2.105       .  S
Cu682       N684   2.089       .  S
Cu682       N690   2.091       .  S
N683        N684   1.320       .  A
N683        C687   1.344       .  A
N684        C685   1.351       .  A
C685        C686   1.391       .  A
C685        H688   1.081       .  S
C686        C687   1.384       .  A
C686       C2018   1.489       .  S
C687        H689   1.082       .  S
N690        N691   1.327       .  A
N690        C694   1.345       .  A
N691        C692   1.352       .  A
C692        C693   1.386       .  A
C692        H695   1.082       .  S
C693        C694   1.381       .  A
C693        C717   1.477       .  S
C694        H696   1.082       .  S
N697        N698   1.323       .  A
N697        C701   1.352       .  A
N697       Cu705   2.101       .  S
N698        C699   1.342       .  A
N698       Cu704   2.070       .  S
C699        C700   1.380       .  A
C699        H702   1.082       .  S
C700        C701   1.389       .  A
C700       C2069   1.483       .  S
C701        H703   1.081       .  S
Cu704       N707   2.069       .  S
Cu705       N715   2.102       .  S
Cu706       N708   2.081       .  S
Cu706       N714   2.082       .  S
N707        N708   1.321       .  A
N707        C711   1.343       .  A
N708        C709   1.349       .  A
C709        C710   1.386       .  A
C709        H712   1.082       .  S
C710        C711   1.381       .  A
C710       C2213   1.479       .  S
C711        H713   1.082       .  S
N714        N715   1.325       .  A
N714        C718   1.344       .  A
N715        C716   1.352       .  A
C716        C717   1.387       .  A
C716        H719   1.082       .  S
C717        C718   1.381       .  A
C718        H720   1.082       .  S
N721        N722   1.322       .  A
N721        C725   1.353       .  A
N721       Cu729   2.101       .  S
N722        C723   1.339       .  A
N722       Cu728   2.058       .  S
C723        C724   1.377       .  A
C723        H726   1.090       .  S
C724        C725   1.392       .  A
C724       C2034   1.483       .  S
C725        H727   1.082       .  S
Cu728       N731   2.058       .  S
Cu729       N739   2.102       .  S
Cu730       N732   2.082       .  S
Cu730       N738   2.085       .  S
N731        N732   1.319       .  A
N731        C735   1.341       .  A
N732        C733   1.350       .  A
C733        C734   1.389       .  A
C733        H736   1.081       .  S
C734        C735   1.381       .  A
C734       C2165   1.480       .  S
C735        H737   1.082       .  S
N738        N739   1.327       .  A
N738        C742   1.345       .  A
N739        C740   1.350       .  A
C740        C741   1.385       .  A
C740        H743   1.082       .  S
C741        C742   1.380       .  A
C741        C765   1.474       .  S
C742        H744   1.082       .  S
N745        N746   1.323       .  A
N745        C749   1.353       .  A
N745       Cu753   2.100       .  S
N746        C747   1.343       .  A
N746       Cu752   2.079       .  S
C747        C748   1.382       .  A
C747        H750   1.082       .  S
C748        C749   1.391       .  A
C748       C1986   1.489       .  S
C749        H751   1.081       .  S
Cu752       N755   2.078       .  S
Cu753       N763   2.100       .  S
Cu754       N756   2.083       .  S
Cu754       N762   2.084       .  S
N755        N756   1.321       .  A
N755        C759   1.344       .  A
N756        C757   1.350       .  A
C757        C758   1.388       .  A
C757        H760   1.082       .  S
C758        C759   1.385       .  A
C758       C2021   1.487       .  S
C759        H761   1.081       .  S
N762        N763   1.326       .  A
N762        C766   1.345       .  A
N763        C764   1.351       .  A
C764        C765   1.385       .  A
C764        H767   1.082       .  S
C765        C766   1.381       .  A
C766        H768   1.082       .  S
N769        N770   1.323       .  A
N769        C773   1.352       .  A
N769       Cu777   2.095       .  S
N770        C771   1.341       .  A
N770       Cu776   2.064       .  S
C771        C772   1.377       .  A
C771        H774   1.082       .  S
C772        C773   1.387       .  A
C772       C1954   1.476       .  S
C773        H775   1.082       .  S
Cu776       N779   2.064       .  S
Cu777       N787   2.096       .  S
Cu778       N780   2.093       .  S
Cu778       N786   2.095       .  S
N779        N780   1.321       .  A
N779        C783   1.343       .  A
N780        C781   1.351       .  A
C781        C782   1.389       .  A
C781        H784   1.082       .  S
C782        C783   1.381       .  A
C782       C1970   1.483       .  S
C783        H785   1.082       .  S
N786        N787   1.326       .  A
N786        C790   1.346       .  A
N787        C788   1.351       .  A
C788        C789   1.386       .  A
C788        H791   1.082       .  S
C789        C790   1.383       .  A
C789        C813   1.478       .  S
C790        H792   1.082       .  S
N793        N794   1.324       .  A
N793        C797   1.352       .  A
N793       Cu801   2.098       .  S
N794        C795   1.342       .  A
N794       Cu800   2.072       .  S
C795        C796   1.379       .  A
C795        H798   1.082       .  S
C796        C797   1.388       .  A
C796       C1938   1.479       .  S
C797        H799   1.082       .  S
Cu800       N803   2.072       .  S
Cu801       N811   2.099       .  S
Cu802       N804   2.089       .  S
Cu802       N810   2.090       .  S
N803        N804   1.321       .  A
N803        C807   1.345       .  A
N804        C805   1.350       .  A
C805        C806   1.388       .  A
C805        H808   1.082       .  S
C806        C807   1.384       .  A
C806       C1922   1.484       .  S
C807        H809   1.082       .  S
N810        N811   1.326       .  A
N810        C814   1.345       .  A
N811        C812   1.351       .  A
C812        C813   1.387       .  A
C812        H815   1.082       .  S
C813        C814   1.382       .  A
C814        H816   1.082       .  S
N817        N818   1.323       .  A
N817        C821   1.351       .  A
N817       Cu825   2.091       .  S
N818        C819   1.342       .  A
N818       Cu824   2.075       .  S
C819        C820   1.380       .  A
C819        H822   1.082       .  S
C820        C821   1.387       .  A
C820       C1906   1.478       .  S
C821        H823   1.082       .  S
Cu824       N827   2.075       .  S
Cu825       N835   2.092       .  S
Cu826       N828   2.085       .  S
Cu826       N834   2.085       .  S
N827        N828   1.321       .  A
N827        C831   1.344       .  A
N828        C829   1.349       .  A
C829        C830   1.388       .  A
C829        H832   1.081       .  S
C830        C831   1.384       .  A
C830       C1973   1.485       .  S
C831        H833   1.082       .  S
N834        N835   1.325       .  A
N834        C838   1.344       .  A
N835        C836   1.350       .  A
C836        C837   1.385       .  A
C836        H839   1.082       .  S
C837        C838   1.382       .  A
C837        C861   1.475       .  S
C838        H840   1.082       .  S
N841        N842   1.323       .  A
N841        C845   1.352       .  A
N841       Cu849   2.094       .  S
N842        C843   1.341       .  A
N842       Cu848   2.070       .  S
C843        C844   1.380       .  A
C843        H846   1.082       .  S
C844        C845   1.390       .  A
C844       C1890   1.484       .  S
C845        H847   1.081       .  S
Cu848       N851   2.071       .  S
Cu849       N859   2.095       .  S
Cu850       N852   2.081       .  S
Cu850       N858   2.082       .  S
N851        N852   1.320       .  A
N851        C855   1.345       .  A
N852        C853   1.348       .  A
C853        C854   1.387       .  A
C853        H856   1.081       .  S
C854        C855   1.384       .  A
C854       C1874   1.484       .  S
C855        H857   1.082       .  S
N858        N859   1.325       .  A
N858        C862   1.344       .  A
N859        C860   1.351       .  A
C860        C861   1.386       .  A
C860        H863   1.082       .  S
C861        C862   1.381       .  A
C862        H864   1.082       .  S
N865        N866   1.324       .  A
N865        C869   1.352       .  A
N865       Cu873   2.102       .  S
N866        C867   1.343       .  A
N866       Cu872   2.073       .  S
C867        C868   1.380       .  A
C867        H870   1.082       .  S
C868        C869   1.388       .  A
C868       C2117   1.482       .  S
C869        H871   1.082       .  S
Cu872       N875   2.072       .  S
Cu873       N883   2.102       .  S
Cu874       N876   2.072       .  S
Cu874       N882   2.074       .  S
N875        N876   1.321       .  A
N875        C879   1.343       .  A
N876        C877   1.348       .  A
C877        C878   1.385       .  A
C877        H880   1.081       .  S
C878        C879   1.382       .  A
C878       C1858   1.477       .  S
C879        H881   1.082       .  S
N882        N883   1.325       .  A
N882        C886   1.343       .  A
N883        C884   1.351       .  A
C884        C885   1.387       .  A
C884        H887   1.082       .  S
C885        C886   1.379       .  A
C885        C909   1.475       .  S
C886        H888   1.082       .  S
N889        N890   1.322       .  A
N889        C893   1.350       .  A
N889       Cu897   2.091       .  S
N890        C891   1.342       .  A
N890       Cu896   2.067       .  S
C891        C892   1.380       .  A
C891        H894   1.082       .  S
C892        C893   1.387       .  A
C892       C1941   1.479       .  S
C893        H895   1.082       .  S
Cu896       N899   2.066       .  S
Cu897       N907   2.091       .  S
Cu898       N900   2.086       .  S
Cu898       N906   2.088       .  S
N899        N900   1.321       .  A
N899        C903   1.342       .  A
N900        C901   1.350       .  A
C901        C902   1.389       .  A
C901        H904   1.081       .  S
C902        C903   1.382       .  A
C902       C1842   1.483       .  S
C903        H905   1.082       .  S
N906        N907   1.325       .  A
N906        C910   1.345       .  A
N907        C908   1.350       .  A
C908        C909   1.384       .  A
C908        H911   1.082       .  S
C909        C910   1.383       .  A
C910        H912   1.082       .  S
N913        N914   1.325       .  A
N913        C917   1.351       .  A
N913       Cu921   2.104       .  S
N914        C915   1.342       .  A
N914       Cu920   2.073       .  S
C915        C916   1.378       .  A
C915        H918   1.082       .  S
C916        C917   1.388       .  A
C916       C2085   1.482       .  S
C917        H919   1.082       .  S
Cu920       N923   2.072       .  S
Cu921       N931   2.104       .  S
Cu922       N924   2.066       .  S
Cu922       N930   2.067       .  S
N923        N924   1.319       .  A
N923        C927   1.345       .  A
N924        C925   1.345       .  A
C925        C926   1.384       .  A
C925        H928   1.082       .  S
C926        C927   1.386       .  A
C926       C1861   1.479       .  S
C927        H929   1.082       .  S
N930        N931   1.324       .  A
N930        C934   1.340       .  A
N931        C932   1.354       .  A
C932        C933   1.390       .  A
C932        H935   1.082       .  S
C933        C934   1.379       .  A
C933        C957   1.477       .  S
C934        H936   1.082       .  S
N937        N938   1.324       .  A
N937        C941   1.351       .  A
N937       Cu945   2.095       .  S
N938        C939   1.342       .  A
N938       Cu944   2.069       .  S
C939        C940   1.378       .  A
C939        H942   1.082       .  S
C940        C941   1.386       .  A
C940       C1893   1.476       .  S
C941        H943   1.082       .  S
Cu944       N947   2.068       .  S
Cu945       N955   2.095       .  S
Cu946       N948   2.080       .  S
Cu946       N954   2.081       .  S
N947        N948   1.320       .  A
N947        C951   1.344       .  A
N948        C949   1.349       .  A
C949        C950   1.387       .  A
C949        H952   1.081       .  S
C950        C951   1.383       .  A
C950       C1826   1.482       .  S
C951        H953   1.082       .  S
N954        N955   1.325       .  A
N954        C958   1.342       .  A
N955        C956   1.353       .  A
C956        C957   1.387       .  A
C956        H959   1.082       .  S
C957        C958   1.382       .  A
C958        H960   1.082       .  S
N961        N962   1.324       .  A
N961        C965   1.354       .  A
N961       Cu969   2.107       .  S
N962        C963   1.344       .  A
N962       Cu968   2.079       .  S
C963        C964   1.381       .  A
C963        H966   1.082       .  S
C964        C965   1.390       .  A
C964       C2005   1.486       .  S
C965        H967   1.082       .  S
Cu968       N971   2.078       .  S
Cu969       N979   2.109       .  S
Cu970       N972   2.081       .  S
Cu970       N978   2.083       .  S
N971        N972   1.321       .  A
N971        C975   1.345       .  A
N972        C973   1.349       .  A
C973        C974   1.387       .  A
C973        H976   1.081       .  S
C974        C975   1.384       .  A
C974       C1810   1.483       .  S
C975        H977   1.082       .  S
N978        N979   1.325       .  A
N978        C982   1.345       .  A
N979        C980   1.353       .  A
C980        C981   1.389       .  A
C980        H983   1.082       .  S
C981        C982   1.382       .  A
C981       C1005   1.481       .  S
C982        H984   1.082       .  S
N985        N986   1.323       .  A
N985        C989   1.354       .  A
N985       Cu993   2.106       .  S
N986        C987   1.342       .  A
N986       Cu992   2.067       .  S
C987        C988   1.378       .  A
C987        H990   1.082       .  S
C988        C989   1.390       .  A
C988       C1794   1.483       .  S
C989        H991   1.082       .  S
Cu992       N995   2.066       .  S
Cu993      N1003   2.108       .  S
Cu994       N996   2.092       .  S
Cu994      N1002   2.093       .  S
N995        N996   1.321       .  A
N995        C999   1.343       .  A
N996        C997   1.351       .  A
C997        C998   1.388       .  A
C997       H1000   1.082       .  S
C998        C999   1.380       .  A
C998       C1925   1.481       .  S
C999       H1001   1.082       .  S
N1002      N1003   1.327       .  A
N1002      C1006   1.346       .  A
N1003      C1004   1.352       .  A
C1004      C1005   1.388       .  A
C1004      H1007   1.082       .  S
C1005      C1006   1.383       .  A
C1006      H1008   1.082       .  S
N1009      N1010   1.323       .  A
N1009      C1013   1.356       .  A
N1009     Cu1017   2.119       .  S
N1010      C1011   1.340       .  A
N1010     Cu1016   2.058       .  S
C1011      C1012   1.376       .  A
C1011      H1014   1.082       .  S
C1012      C1013   1.394       .  A
C1012      C1989   1.485       .  S
C1013      H1015   1.082       .  S
Cu1016     N1019   2.058       .  S
Cu1017     N1027   2.121       .  S
Cu1018     N1020   2.079       .  S
Cu1018     N1026   2.081       .  S
N1019      N1020   1.319       .  A
N1019      C1023   1.342       .  A
N1020      C1021   1.349       .  A
C1021      C1022   1.387       .  A
C1021      H1024   1.082       .  S
C1022      C1023   1.381       .  A
C1022      C1813   1.478       .  S
C1023      H1025   1.082       .  S
N1026      N1027   1.327       .  A
N1026      C1030   1.343       .  A
N1027      C1028   1.355       .  A
C1028      C1029   1.391       .  A
C1028      H1031   1.082       .  S
C1029      C1030   1.380       .  A
C1029      C1053   1.482       .  S
C1030      H1032   1.082       .  S
N1033      N1034   1.323       .  A
N1033      C1037   1.354       .  A
N1033     Cu1041   2.103       .  S
N1034      C1035   1.341       .  A
N1034     Cu1040   2.064       .  S
C1035      C1036   1.378       .  A
C1035      H1038   1.082       .  S
C1036      C1037   1.391       .  A
C1036      C1778   1.483       .  S
C1037      H1039   1.082       .  S
Cu1040     N1043   2.064       .  S
Cu1041     N1051   2.104       .  S
Cu1042     N1044   2.094       .  S
Cu1042     N1050   2.096       .  S
N1043      N1044   1.320       .  A
N1043      C1047   1.343       .  A
N1044      C1045   1.351       .  A
C1045      C1046   1.390       .  A
C1045      H1048   1.082       .  S
C1046      C1047   1.381       .  A
C1046      C1877   1.483       .  S
C1047      H1049   1.082       .  S
N1050      N1051   1.327       .  A
N1050      C1054   1.345       .  A
N1051      C1052   1.353       .  A
C1052      C1053   1.387       .  A
C1052      H1055   1.082       .  S
C1053      C1054   1.384       .  A
C1054      H1056   1.082       .  S
N1057      N1058   1.323       .  A
N1057      C1061   1.353       .  A
N1057     Cu1065   2.098       .  S
N1058      C1059   1.342       .  A
N1058     Cu1064   2.070       .  S
C1059      C1060   1.378       .  A
C1059      H1062   1.082       .  S
C1060      C1061   1.388       .  A
C1060      C1797   1.480       .  S
C1061      H1063   1.082       .  S
Cu1064     N1067   2.070       .  S
Cu1065     N1075   2.098       .  S
Cu1066     N1068   2.081       .  S
Cu1066     N1074   2.083       .  S
N1067      N1068   1.321       .  A
N1067      C1071   1.344       .  A
N1068      C1069   1.349       .  A
C1069      C1070   1.385       .  A
C1069      H1072   1.082       .  S
C1070      C1071   1.382       .  A
C1070      C1845   1.479       .  S
C1071      H1073   1.082       .  S
N1074      N1075   1.326       .  A
N1074      C1078   1.345       .  A
N1075      C1076   1.350       .  A
C1076      C1077   1.385       .  A
C1076      H1079   1.082       .  S
C1077      C1078   1.381       .  A
C1077      C1101   1.474       .  S
C1078      H1080   1.082       .  S
N1081      N1082   1.323       .  A
N1081      C1085   1.352       .  A
N1081     Cu1089   2.099       .  S
N1082      C1083   1.343       .  A
N1082     Cu1088   2.070       .  S
C1083      C1084   1.380       .  A
C1083      H1086   1.082       .  S
C1084      C1085   1.389       .  A
C1084      C1746   1.484       .  S
C1085      H1087   1.081       .  S
Cu1088     N1091   2.069       .  S
Cu1089     N1099   2.100       .  S
Cu1090     N1092   2.077       .  S
Cu1090     N1098   2.078       .  S
N1091      N1092   1.321       .  A
N1091      C1095   1.343       .  A
N1092      C1093   1.348       .  A
C1093      C1094   1.386       .  A
C1093      H1096   1.081       .  S
C1094      C1095   1.381       .  A
C1094      C1762   1.479       .  S
C1095      H1097   1.082       .  S
N1098      N1099   1.325       .  A
N1098      C1102   1.344       .  A
N1099      C1100   1.350       .  A
C1100      C1101   1.386       .  A
C1100      H1103   1.082       .  S
C1101      C1102   1.381       .  A
C1102      H1104   1.082       .  S
N1105      N1106   1.324       .  A
N1105      C1109   1.352       .  A
N1105     Cu1113   2.097       .  S
N1106      C1107   1.344       .  A
N1106     Cu1112   2.078       .  S
C1107      C1108   1.380       .  A
C1107      H1110   1.082       .  S
C1108      C1109   1.387       .  A
C1108      C1781   1.482       .  S
C1109      H1111   1.082       .  S
Cu1112     N1115   2.077       .  S
Cu1113     N1123   2.097       .  S
Cu1114     N1116   2.088       .  S
Cu1114     N1122   2.089       .  S
N1115      N1116   1.321       .  A
N1115      C1119   1.345       .  A
N1116      C1117   1.350       .  A
C1117      C1118   1.388       .  A
C1117      H1120   1.082       .  S
C1118      C1119   1.384       .  A
C1118      C1829   1.485       .  S
C1119      H1121   1.081       .  S
N1122      N1123   1.325       .  A
N1122      C1126   1.346       .  A
N1123      C1124   1.351       .  A
C1124      C1125   1.386       .  A
C1124      H1127   1.082       .  S
C1125      C1126   1.383       .  A
C1125      C1149   1.478       .  S
C1126      H1128   1.082       .  S
N1129      N1130   1.323       .  A
N1129      C1133   1.352       .  A
N1129     Cu1137   2.103       .  S
N1130      C1131   1.342       .  A
N1130     Cu1136   2.064       .  S
C1131      C1132   1.378       .  A
C1131      H1134   1.082       .  S
C1132      C1133   1.389       .  A
C1132      C1730   1.480       .  S
C1133      H1135   1.082       .  S
Cu1136     N1139   2.063       .  S
Cu1137     N1147   2.104       .  S
Cu1138     N1140   2.080       .  S
Cu1138     N1146   2.081       .  S
N1139      N1140   1.321       .  A
N1139      C1143   1.342       .  A
N1140      C1141   1.348       .  A
C1141      C1142   1.385       .  A
C1141      H1144   1.082       .  S
C1142      C1143   1.380       .  A
C1142      C1765   1.476       .  S
C1143      H1145   1.082       .  S
N1146      N1147   1.325       .  A
N1146      C1150   1.344       .  A
N1147      C1148   1.352       .  A
C1148      C1149   1.388       .  A
C1148      H1151   1.082       .  S
C1149      C1150   1.381       .  A
C1150      H1152   1.082       .  S
N1153      N1154   1.324       .  A
N1153      C1157   1.354       .  A
N1153     Cu1161   2.107       .  S
N1154      C1155   1.343       .  A
N1154     Cu1160   2.074       .  S
C1155      C1156   1.380       .  A
C1155      H1158   1.082       .  S
C1156      C1157   1.391       .  A
C1156      C2533   1.484       .  S
C1157      H1159   1.082       .  S
Cu1160     N1163   2.074       .  S
Cu1161     N1171   2.107       .  S
Cu1162     N1164   2.067       .  S
Cu1162     N1170   2.068       .  S
N1163      N1164   1.320       .  A
N1163      C1167   1.344       .  A
N1164      C1165   1.347       .  A
C1165      C1166   1.384       .  A
C1165      H1168   1.082       .  S
C1166      C1167   1.383       .  A
C1166      C1714   1.478       .  S
C1167      H1169   1.082       .  S
N1170      N1171   1.325       .  A
N1170      C1174   1.343       .  A
N1171      C1172   1.351       .  A
C1172      C1173   1.388       .  A
C1172      H1175   1.082       .  S
C1173      C1174   1.378       .  A
C1173      C1197   1.473       .  S
C1174      H1176   1.082       .  S
N1177      N1178   1.323       .  A
N1177      C1181   1.349       .  A
N1177     Cu1185   2.083       .  S
N1178      C1179   1.343       .  A
N1178     Cu1184   2.077       .  S
C1179      C1180   1.381       .  A
C1179      H1182   1.082       .  S
C1180      C1181   1.384       .  A
C1180      C1698   1.478       .  S
C1181      H1183   1.082       .  S
Cu1184     N1187   2.077       .  S
Cu1185     N1195   2.084       .  S
Cu1186     N1188   2.088       .  S
Cu1186     N1194   2.089       .  S
N1187      N1188   1.322       .  A
N1187      C1191   1.345       .  A
N1188      C1189   1.350       .  A
C1189      C1190   1.386       .  A
C1189      H1192   1.082       .  S
C1190      C1191   1.383       .  A
C1190      C1685   1.482       .  S
C1191      H1193   1.082       .  S
N1194      N1195   1.325       .  A
N1194      C1198   1.345       .  A
N1195      C1196   1.349       .  A
C1196      C1197   1.383       .  A
C1196      H1199   1.082       .  S
C1197      C1198   1.383       .  A
C1198      H1200   1.082       .  S
N1201      N1202   1.323       .  A
N1201      C1205   1.351       .  A
N1201     Cu1209   2.089       .  S
N1202      C1203   1.342       .  A
N1202     Cu1208   2.079       .  S
C1203      C1204   1.384       .  A
C1203      H1206   1.084       .  S
C1204      C1205   1.389       .  A
C1204      C2485   1.488       .  S
C1205      H1207   1.081       .  S
Cu1208     N1211   2.078       .  S
Cu1209     N1219   2.090       .  S
Cu1210     N1212   2.077       .  S
Cu1210     N1218   2.079       .  S
N1211      N1212   1.322       .  A
N1211      C1215   1.345       .  A
N1212      C1213   1.348       .  A
C1213      C1214   1.384       .  A
C1213      H1216   1.082       .  S
C1214      C1215   1.383       .  A
C1214      C1717   1.479       .  S
C1215      H1217   1.082       .  S
N1218      N1219   1.324       .  A
N1218      C1222   1.345       .  A
N1219      C1220   1.349       .  A
C1220      C1221   1.385       .  A
C1220      H1223   1.082       .  S
C1221      C1222   1.382       .  A
C1221      C1245   1.473       .  S
C1222      H1224   1.082       .  S
N1225      N1226   1.322       .  A
N1225      C1229   1.353       .  A
N1225     Cu1233   2.098       .  S
N1226      C1227   1.340       .  A
N1226     Cu1232   2.061       .  S
C1227      C1228   1.379       .  A
C1227      H1230   1.082       .  S
C1228      C1229   1.390       .  A
C1228      C1666   1.482       .  S
C1229      H1231   1.082       .  S
Cu1232     N1235   2.061       .  S
Cu1233     N1243   2.099       .  S
Cu1234     N1236   2.078       .  S
Cu1234     N1242   2.080       .  S
N1235      N1236   1.321       .  A
N1235      C1239   1.342       .  A
N1236      C1237   1.348       .  A
C1237      C1238   1.384       .  A
C1237      H1240   1.082       .  S
C1238      C1239   1.379       .  A
C1238      C1650   1.473       .  S
C1239      H1241   1.082       .  S
N1242      N1243   1.326       .  A
N1242      C1246   1.345       .  A
N1243      C1244   1.349       .  A
C1244      C1245   1.385       .  A
C1244      H1247   1.082       .  S
C1245      C1246   1.380       .  A
C1246      H1248   1.082       .  S
N1249      N1250   1.323       .  A
N1249      C1253   1.354       .  A
N1249     Cu1257   2.106       .  S
N1250      C1251   1.342       .  A
N1250     Cu1256   2.065       .  S
C1251      C1252   1.378       .  A
C1251      H1254   1.082       .  S
C1252      C1253   1.390       .  A
C1252      C1749   1.483       .  S
C1253      H1255   1.082       .  S
Cu1256     N1259   2.065       .  S
Cu1257     N1267   2.108       .  S
Cu1258     N1260   2.093       .  S
Cu1258     N1266   2.095       .  S
N1259      N1260   1.321       .  A
N1259      C1263   1.343       .  A
N1260      C1261   1.351       .  A
C1261      C1262   1.389       .  A
C1261      H1264   1.081       .  S
C1262      C1263   1.381       .  A
C1262      C1634   1.482       .  S
C1263      H1265   1.082       .  S
N1266      N1267   1.327       .  A
N1266      C1270   1.347       .  A
N1267      C1268   1.352       .  A
C1268      C1269   1.387       .  A
C1268      H1271   1.082       .  S
C1269      C1270   1.383       .  A
C1269      C1293   1.481       .  S
C1270      H1272   1.082       .  S
N1273      N1274   1.323       .  A
N1273      C1277   1.355       .  A
N1273     Cu1281   2.114       .  S
N1274      C1275   1.341       .  A
N1274     Cu1280   2.058       .  S
C1275      C1276   1.376       .  A
C1275      H1278   1.082       .  S
C1276      C1277   1.391       .  A
C1276      C1701   1.480       .  S
C1277      H1279   1.082       .  S
Cu1280     N1283   2.058       .  S
Cu1281     N1291   2.116       .  S
Cu1282     N1284   2.084       .  S
Cu1282     N1290   2.086       .  S
N1283      N1284   1.320       .  A
N1283      C1287   1.342       .  A
N1284      C1285   1.349       .  A
C1285      C1286   1.389       .  A
C1285      H1288   1.081       .  S
C1286      C1287   1.382       .  A
C1286      C1621   1.482       .  S
C1287      H1289   1.082       .  S
N1290      N1291   1.327       .  A
N1290      C1294   1.346       .  A
N1291      C1292   1.353       .  A
C1292      C1293   1.389       .  A
C1292      H1295   1.082       .  S
C1293      C1294   1.381       .  A
C1294      H1296   1.082       .  S
N1297      N1298   1.324       .  A
N1297      C1301   1.352       .  A
N1297     Cu1305   2.096       .  S
N1298      C1299   1.342       .  A
N1298     Cu1304   2.073       .  S
C1299      C1300   1.379       .  A
C1299      H1302   1.082       .  S
C1300      C1301   1.387       .  A
C1300      C1733   1.479       .  S
C1301      H1303   1.082       .  S
Cu1304     N1307   2.073       .  S
Cu1305     N1315   2.096       .  S
Cu1306     N1308   2.073       .  S
Cu1306     N1314   2.074       .  S
N1307      N1308   1.321       .  A
N1307      C1311   1.345       .  A
N1308      C1309   1.347       .  A
C1309      C1310   1.383       .  A
C1309      H1312   1.082       .  S
C1310      C1311   1.383       .  A
C1310      C1637   1.477       .  S
C1311      H1313   1.082       .  S
N1314      N1315   1.325       .  A
N1314      C1318   1.342       .  A
N1315      C1316   1.351       .  A
C1316      C1317   1.386       .  A
C1316      H1319   1.082       .  S
C1317      C1318   1.380       .  A
C1317      C1341   1.474       .  S
C1318      H1320   1.082       .  S
N1321      N1322   1.324       .  A
N1321      C1325   1.353       .  A
N1321     Cu1329   2.103       .  S
N1322      C1323   1.341       .  A
N1322     Cu1328   2.068       .  S
C1323      C1324   1.378       .  A
C1323      H1326   1.082       .  S
C1324      C1325   1.389       .  A
C1324      C1669   1.481       .  S
C1325      H1327   1.082       .  S
Cu1328     N1331   2.068       .  S
Cu1329     N1339   2.103       .  S
Cu1330     N1332   2.071       .  S
Cu1330     N1338   2.072       .  S
N1331      N1332   1.319       .  A
N1331      C1335   1.343       .  A
N1332      C1333   1.347       .  A
C1333      C1334   1.385       .  A
C1333      H1336   1.082       .  S
C1334      C1335   1.384       .  A
C1334      C1605   1.480       .  S
C1335      H1337   1.082       .  S
N1338      N1339   1.325       .  A
N1338      C1342   1.341       .  A
N1339      C1340   1.352       .  A
C1340      C1341   1.388       .  A
C1340      H1343   1.082       .  S
C1341      C1342   1.378       .  A
C1342      H1344   1.082       .  S
N1345      N1346   1.323       .  A
N1345      C1349   1.352       .  A
N1345     Cu1353   2.092       .  S
N1346      C1347   1.340       .  A
N1346     Cu1352   2.062       .  S
C1347      C1348   1.377       .  A
C1347      H1350   1.082       .  S
C1348      C1349   1.386       .  A
C1348      C1957   1.475       .  S
C1349      H1351   1.082       .  S
Cu1352     N1355   2.061       .  S
Cu1353     N1363   2.093       .  S
Cu1354     N1356   2.066       .  S
Cu1354     N1362   2.067       .  S
N1355      N1356   1.320       .  A
N1355      C1359   1.342       .  A
N1356      C1357   1.346       .  A
C1357      C1358   1.384       .  A
C1357      H1360   1.082       .  S
C1358      C1359   1.381       .  A
C1358      C1586   1.473       .  S
C1359      H1361   1.082       .  S
N1362      N1363   1.325       .  A
N1362      C1366   1.342       .  A
N1363      C1364   1.349       .  A
C1364      C1365   1.385       .  A
C1364      H1367   1.082       .  S
C1365      C1366   1.378       .  A
C1365      C1389   1.470       .  S
C1366      H1368   1.082       .  S
N1369      N1370   1.322       .  A
N1369      C1373   1.349       .  A
N1369     Cu1377   2.075       .  S
N1370      C1371   1.340       .  A
N1370     Cu1376   2.067       .  S
C1371      C1372   1.379       .  A
C1371      H1374   1.082       .  S
C1372      C1373   1.384       .  A
C1372      C1570   1.473       .  S
C1373      H1375   1.082       .  S
Cu1376     N1379   2.067       .  S
Cu1377     N1387   2.076       .  S
Cu1378     N1380   2.084       .  S
Cu1378     N1386   2.085       .  S
N1379      N1380   1.320       .  A
N1379      C1383   1.343       .  A
N1380      C1381   1.350       .  A
C1381      C1382   1.388       .  A
C1381      H1384   1.081       .  S
C1382      C1383   1.382       .  A
C1382      C1682   1.483       .  S
C1383      H1385   1.082       .  S
N1386      N1387   1.325       .  A
N1386      C1390   1.343       .  A
N1387      C1388   1.347       .  A
C1388      C1389   1.382       .  A
C1388      H1391   1.082       .  S
C1389      C1390   1.382       .  A
C1390      H1392   1.082       .  S
N1393      N1394   1.322       .  A
N1393      C1397   1.352       .  A
N1393     Cu1401   2.092       .  S
N1394      C1395   1.340       .  A
N1394     Cu1400   2.055       .  S
C1395      C1396   1.377       .  A
C1395      H1398   1.082       .  S
C1396      C1397   1.388       .  A
C1396      C1909   1.476       .  S
C1397      H1399   1.082       .  S
Cu1400     N1403   2.055       .  S
Cu1401     N1411   2.093       .  S
Cu1402     N1404   2.078       .  S
Cu1402     N1410   2.081       .  S
N1403      N1404   1.321       .  A
N1403      C1407   1.340       .  A
N1404      C1405   1.349       .  A
C1405      C1406   1.385       .  A
C1405      H1408   1.082       .  S
C1406      C1407   1.377       .  A
C1406      C1589   1.472       .  S
C1407      H1409   1.082       .  S
N1410      N1411   1.326       .  A
N1410      C1414   1.345       .  A
N1411      C1412   1.348       .  A
C1412      C1413   1.383       .  A
C1412      H1415   1.082       .  S
C1413      C1414   1.381       .  A
C1413      C1437   1.470       .  S
C1414      H1416   1.082       .  S
N1417      N1418   1.322       .  A
N1417      C1421   1.351       .  A
N1417     Cu1425   2.092       .  S
N1418      C1419   1.340       .  A
N1418     Cu1424   2.061       .  S
C1419      C1420   1.378       .  A
C1419      H1422   1.082       .  S
C1420      C1421   1.388       .  A
C1420      C1554   1.477       .  S
C1421      H1423   1.082       .  S
Cu1424     N1427   2.061       .  S
Cu1425     N1435   2.093       .  S
Cu1426     N1428   2.076       .  S
Cu1426     N1434   2.078       .  S
N1427      N1428   1.320       .  A
N1427      C1431   1.342       .  A
N1428      C1429   1.347       .  A
C1429      C1430   1.386       .  A
C1429      H1432   1.082       .  S
C1430      C1431   1.380       .  A
C1430      C1653   1.476       .  S
C1431      H1433   1.082       .  S
N1434      N1435   1.325       .  A
N1434      C1438   1.344       .  A
N1435      C1436   1.349       .  A
C1436      C1437   1.384       .  A
C1436      H1439   1.082       .  S
C1437      C1438   1.380       .  A
C1438      H1440   1.082       .  S
N1441      N1442   1.323       .  A
N1441      C1445   1.350       .  A
N1441     Cu1449   2.083       .  S
N1442      C1443   1.342       .  A
N1442     Cu1448   2.073       .  S
C1443      C1444   1.381       .  A
C1443      H1446   1.082       .  S
C1444      C1445   1.385       .  A
C1444      C2261   1.478       .  S
C1445      H1447   1.081       .  S
Cu1448     N1451   2.072       .  S
Cu1449     N1459   2.083       .  S
Cu1450     N1452   2.069       .  S
Cu1450     N1458   2.070       .  S
N1451      N1452   1.321       .  A
N1451      C1455   1.343       .  A
N1452      C1453   1.347       .  A
C1453      C1454   1.384       .  A
C1453      H1456   1.082       .  S
C1454      C1455   1.383       .  A
C1454      C1538   1.478       .  S
C1455      H1457   1.082       .  S
N1458      N1459   1.324       .  A
N1458      C1462   1.342       .  A
N1459      C1460   1.348       .  A
C1460      C1461   1.383       .  A
C1460      H1463   1.082       .  S
C1461      C1462   1.379       .  A
C1461      C1485   1.467       .  S
C1462      H1464   1.082       .  S
N1465      N1466   1.323       .  A
N1465      C1469   1.350       .  A
N1465     Cu1473   2.081       .  S
N1466      C1467   1.340       .  A
N1466     Cu1472   2.064       .  S
C1467      C1468   1.378       .  A
C1467      H1470   1.082       .  S
C1468      C1469   1.384       .  A
C1468      C1573   1.472       .  S
C1469      H1471   1.082       .  S
Cu1472     N1475   2.064       .  S
Cu1473     N1483   2.082       .  S
Cu1474     N1476   2.073       .  S
Cu1474     N1482   2.074       .  S
N1475      N1476   1.320       .  A
N1475      C1479   1.343       .  A
N1476      C1477   1.347       .  A
C1477      C1478   1.384       .  A
C1477      H1480   1.082       .  S
C1478      C1479   1.381       .  A
C1478      C1618   1.476       .  S
C1479      H1481   1.082       .  S
N1482      N1483   1.325       .  A
N1482      C1486   1.342       .  A
N1483      C1484   1.349       .  A
C1484      C1485   1.383       .  A
C1484      H1487   1.082       .  S
C1485      C1486   1.379       .  A
C1486      H1488   1.082       .  S
N1489      N1490   1.322       .  A
N1489      C1493   1.352       .  A
N1489     Cu1497   2.097       .  S
N1490      C1491   1.342       .  A
N1490     Cu1496   2.067       .  S
C1491      C1492   1.379       .  A
C1491      H1494   1.082       .  S
C1492      C1493   1.388       .  A
C1492      C2245   1.481       .  S
C1493      H1495   1.082       .  S
Cu1496     N1499   2.067       .  S
Cu1497     N1507   2.097       .  S
Cu1498     N1500   2.089       .  S
Cu1498     N1506   2.091       .  S
N1499      N1500   1.321       .  A
N1499      C1503   1.342       .  A
N1500      C1501   1.350       .  A
C1501      C1502   1.388       .  A
C1501      H1504   1.082       .  S
C1502      C1503   1.382       .  A
C1502      C1541   1.481       .  S
C1503      H1505   1.082       .  S
N1506      N1507   1.326       .  A
N1506      C1510   1.347       .  A
N1507      C1508   1.349       .  A
C1508      C1509   1.384       .  A
C1508      H1511   1.082       .  S
C1509      C1510   1.383       .  A
C1509      C1533   1.476       .  S
C1510      H1512   1.082       .  S
N1513      N1514   1.323       .  A
N1513      C1517   1.350       .  A
N1513     Cu1521   2.091       .  S
N1514      C1515   1.343       .  A
N1514     Cu1520   2.069       .  S
C1515      C1516   1.380       .  A
C1515      H1518   1.082       .  S
C1516      C1517   1.385       .  A
C1516      C1557   1.476       .  S
C1517      H1519   1.082       .  S
Cu1520     N1523   2.069       .  S
Cu1521     N1531   2.092       .  S
Cu1522     N1524   2.087       .  S
Cu1522     N1530   2.089       .  S
N1523      N1524   1.321       .  A
N1523      C1527   1.343       .  A
N1524      C1525   1.350       .  A
C1525      C1526   1.388       .  A
C1525      H1528   1.081       .  S
C1526      C1527   1.382       .  A
C1526      C1602   1.483       .  S
C1527      H1529   1.082       .  S
N1530      N1531   1.325       .  A
N1530      C1534   1.346       .  A
N1531      C1532   1.349       .  A
C1532      C1533   1.385       .  A
C1532      H1535   1.082       .  S
C1533      C1534   1.383       .  A
C1534      H1536   1.082       .  S
C1537      C1538   1.403       .  A
C1537      C1542   1.410       .  A
C1537      H1544   1.083       .  S
C1538      C1539   1.415       .  A
C1539      C1540   1.405       .  A
C1539      C1546   1.519       .  S
C1540      C1541   1.403       .  A
C1540      H1545   1.083       .  S
C1541      C1542   1.417       .  A
C1542      C1543   1.517       .  S
C1543      F1547   1.385       .  S
C1543      F1548   1.383       .  S
C1543      F1549   1.381       .  S
C1546      F1550   1.381       .  S
C1546      F1551   1.383       .  S
C1546      F1552   1.384       .  S
C1553      C1554   1.402       .  A
C1553      C1558   1.409       .  A
C1553      H1560   1.083       .  S
C1554      C1555   1.416       .  A
C1555      C1556   1.407       .  A
C1555      C1562   1.517       .  S
C1556      C1557   1.401       .  A
C1556      H1561   1.083       .  S
C1557      C1558   1.415       .  A
C1558      C1559   1.516       .  S
C1559      F1563   1.385       .  S
C1559      F1564   1.383       .  S
C1559      F1565   1.383       .  S
C1562      F1566   1.382       .  S
C1562      F1567   1.383       .  S
C1562      F1568   1.385       .  S
C1569      C1570   1.404       .  A
C1569      C1574   1.409       .  A
C1569      H1576   1.083       .  S
C1570      C1571   1.414       .  A
C1571      C1572   1.403       .  A
C1571      C1578   1.518       .  S
C1572      C1573   1.401       .  A
C1572      H1577   1.084       .  S
C1573      C1574   1.413       .  A
C1574      C1575   1.516       .  S
C1575      F1579   1.384       .  S
C1575      F1580   1.383       .  S
C1575      F1581   1.383       .  S
C1578      F1582   1.382       .  S
C1578      F1583   1.383       .  S
C1578      F1584   1.385       .  S
C1585      C1586   1.401       .  A
C1585      C1590   1.403   1_556  A
C1585      H1592   1.083       .  S
C1586      C1587   1.415   1_556  A
C1587      C1588   1.408       .  A
C1587      C1594   1.518   1_554  S
C1588      C1589   1.402       .  A
C1588      H1593   1.083       .  S
C1589      C1590   1.415       .  A
C1590      C1591   1.519       .  S
C1591      F1595   1.385       .  S
C1591      F1596   1.382       .  S
C1591      F1597   1.383       .  S
C1594      F1598   1.383       .  S
C1594      F1599   1.381       .  S
C1594      F1600   1.385   1_556  S
C1601      C1602   1.403       .  A
C1601      C1606   1.406       .  A
C1601      H1608   1.084       .  S
C1602      C1603   1.418       .  A
C1603      C1604   1.410       .  A
C1603      C1610   1.517       .  S
C1604      C1605   1.403       .  A
C1604      H1609   1.083       .  S
C1605      C1606   1.415       .  A
C1606      C1607   1.518       .  S
C1607      F1611   1.385       .  S
C1607      F1612   1.381       .  S
C1607      F1613   1.384       .  S
C1610      F1614   1.383       .  S
C1610      F1615   1.381       .  S
C1610      F1616   1.385       .  S
C1617      C1618   1.401       .  A
C1617      C1622   1.409       .  A
C1617      H1624   1.083       .  S
C1618      C1619   1.414       .  A
C1619      C1620   1.406       .  A
C1619      C1626   1.519       .  S
C1620      C1621   1.404       .  A
C1620      H1625   1.083       .  S
C1621      C1622   1.419       .  A
C1622      C1623   1.518       .  S
C1623      F1627   1.385       .  S
C1623      F1628   1.383       .  S
C1623      F1629   1.381       .  S
C1626      F1630   1.382       .  S
C1626      F1631   1.383       .  S
C1626      F1632   1.384       .  S
C1633      C1634   1.404       .  A
C1633      C1638   1.407       .  A
C1633      H1640   1.083       .  S
C1634      C1635   1.417       .  A
C1635      C1636   1.410       .  A
C1635      C1642   1.516       .  S
C1636      C1637   1.402       .  A
C1636      H1641   1.083       .  S
C1637      C1638   1.414       .  A
C1638      C1639   1.518       .  S
C1639      F1643   1.384       .  S
C1639      F1644   1.384       .  S
C1639      F1645   1.382       .  S
C1642      F1646   1.382       .  S
C1642      F1647   1.383       .  S
C1642      F1648   1.385       .  S
C1649      C1650   1.401       .  A
C1649      C1654   1.408       .  A
C1649      H1656   1.083       .  S
C1650      C1651   1.414       .  A
C1651      C1652   1.406       .  A
C1651      C1658   1.518       .  S
C1652      C1653   1.403       .  A
C1652      H1657   1.083       .  S
C1653      C1654   1.416       .  A
C1654      C1655   1.518       .  S
C1655      F1659   1.384       .  S
C1655      F1660   1.384       .  S
C1655      F1661   1.382       .  S
C1658      F1662   1.383       .  S
C1658      F1663   1.383       .  S
C1658      F1664   1.384       .  S
C1665      C1666   1.402       .  A
C1665      C1670   1.406       .  A
C1665      H1672   1.084       .  S
C1666      C1667   1.416       .  A
C1667      C1668   1.412       .  A
C1667      C1674   1.516       .  S
C1668      C1669   1.404       .  A
C1668      H1673   1.083       .  S
C1669      C1670   1.416       .  A
C1670      C1671   1.519       .  S
C1671      F1675   1.385       .  S
C1671      F1676   1.382       .  S
C1671      F1677   1.383       .  S
C1674      F1678   1.383       .  S
C1674      F1679   1.382       .  S
C1674      F1680   1.385       .  S
C1681      C1682   1.403       .  A
C1681      C1686   1.407       .  A
C1681      H1688   1.083       .  S
C1682      C1683   1.418       .  A
C1683      C1684   1.412       .  A
C1683      C1690   1.517       .  S
C1684      C1685   1.403       .  A
C1684      H1689   1.083       .  S
C1685      C1686   1.415       .  A
C1686      C1687   1.517       .  S
C1687      F1691   1.385       .  S
C1687      F1692   1.382       .  S
C1687      F1693   1.383       .  S
C1690      F1694   1.383       .  S
C1690      F1695   1.382       .  S
C1690      F1696   1.384       .  S
C1697      C1698   1.401       .  A
C1697      C1702   1.409       .  A
C1697      H1704   1.083       .  S
C1698      C1699   1.415       .  A
C1699      C1700   1.409       .  A
C1699      C1706   1.517       .  S
C1700      C1701   1.403       .  A
C1700      H1705   1.083       .  S
C1701      C1702   1.416       .  A
C1702      C1703   1.515       .  S
C1703      F1707   1.385       .  S
C1703      F1708   1.383       .  S
C1703      F1709   1.383       .  S
C1706      F1710   1.382       .  S
C1706      F1711   1.383       .  S
C1706      F1712   1.384       .  S
C1713      C1714   1.402       .  A
C1713      C1718   1.409   1_556  A
C1713      H1720   1.083       .  S
C1714      C1715   1.415       .  A
C1715      C1716   1.407   1_556  A
C1715      C1722   1.518       .  S
C1716      C1717   1.402       .  A
C1716      H1721   1.083       .  S
C1717      C1718   1.416       .  A
C1718      C1719   1.517       .  S
C1719      F1723   1.385       .  S
C1719      F1724   1.383       .  S
C1719      F1725   1.382       .  S
C1722      F1726   1.381       .  S
C1722      F1727   1.384       .  S
C1722      F1728   1.384   1_556  S
C1729      C1730   1.403       .  A
C1729      C1734   1.410   1_565  A
C1729      H1736   1.083       .  S
C1730      C1731   1.416       .  A
C1731      C1732   1.409   1_565  A
C1731      C1738   1.517       .  S
C1732      C1733   1.402       .  A
C1732      H1737   1.083       .  S
C1733      C1734   1.414       .  A
C1734      C1735   1.517       .  S
C1735      F1739   1.384       .  S
C1735      F1740   1.383       .  S
C1735      F1741   1.383       .  S
C1738      F1742   1.383       .  S
C1738      F1743   1.383       .  S
C1738      F1744   1.385       .  S
C1745      C1746   1.402   1_545  A
C1745      C1750   1.408       .  A
C1745      H1752   1.084   1_545  S
C1746      C1747   1.417       .  A
C1747      C1748   1.413   1_565  A
C1747      C1754   1.516       .  S
C1748      C1749   1.403       .  A
C1748      H1753   1.083       .  S
C1749      C1750   1.415       .  A
C1750      C1751   1.517       .  S
C1751      F1755   1.385       .  S
C1751      F1756   1.384       .  S
C1751      F1757   1.382       .  S
C1754      F1758   1.383       .  S
C1754      F1759   1.383       .  S
C1754      F1760   1.384       .  S
C1761      C1762   1.403       .  A
C1761      C1766   1.406       .  A
C1761      H1768   1.083       .  S
C1762      C1763   1.417       .  A
C1763      C1764   1.409       .  A
C1763      C1770   1.518       .  S
C1764      C1765   1.402       .  A
C1764      H1769   1.083       .  S
C1765      C1766   1.415       .  A
C1766      C1767   1.519       .  S
C1767      F1771   1.384       .  S
C1767      F1772   1.383       .  S
C1767      F1773   1.382       .  S
C1770      F1774   1.381       .  S
C1770      F1775   1.384       .  S
C1770      F1776   1.384       .  S
C1777      C1778   1.404       .  A
C1777      C1782   1.408       .  A
C1777      H1784   1.083       .  S
C1778      C1779   1.416       .  A
C1779      C1780   1.411       .  A
C1779      C1786   1.517       .  S
C1780      C1781   1.404       .  A
C1780      H1785   1.083       .  S
C1781      C1782   1.415       .  A
C1782      C1783   1.517       .  S
C1783      F1787   1.385       .  S
C1783      F1788   1.382       .  S
C1783      F1789   1.383       .  S
C1786      F1790   1.382       .  S
C1786      F1791   1.383       .  S
C1786      F1792   1.385       .  S
C1793      C1794   1.404       .  A
C1793      C1798   1.412       .  A
C1793      H1800   1.083       .  S
C1794      C1795   1.416       .  A
C1795      C1796   1.409       .  A
C1795      C1802   1.517       .  S
C1796      C1797   1.402       .  A
C1796      H1801   1.083       .  S
C1797      C1798   1.416       .  A
C1798      C1799   1.517       .  S
C1799      F1803   1.384       .  S
C1799      F1804   1.383       .  S
C1799      F1805   1.383       .  S
C1802      F1806   1.383       .  S
C1802      F1807   1.382       .  S
C1802      F1808   1.384       .  S
C1809      C1810   1.403   1_554  A
C1809      C1814   1.407       .  A
C1809      H1816   1.083   1_554  S
C1810      C1811   1.418   1_556  A
C1811      C1812   1.411       .  A
C1811      C1818   1.517   1_554  S
C1812      C1813   1.402       .  A
C1812      H1817   1.083       .  S
C1813      C1814   1.415       .  A
C1814      C1815   1.518       .  S
C1815      F1819   1.384       .  S
C1815      F1820   1.382       .  S
C1815      F1821   1.384       .  S
C1818      F1822   1.383       .  S
C1818      F1823   1.382       .  S
C1818      F1824   1.385   1_556  S
C1825      C1826   1.402       .  A
C1825      C1830   1.407       .  A
C1825      H1832   1.084       .  S
C1826      C1827   1.417       .  A
C1827      C1828   1.411       .  A
C1827      C1834   1.518       .  S
C1828      C1829   1.404       .  A
C1828      H1833   1.083       .  S
C1829      C1830   1.417       .  A
C1830      C1831   1.517       .  S
C1831      F1835   1.385       .  S
C1831      F1836   1.384       .  S
C1831      F1837   1.381       .  S
C1834      F1838   1.382       .  S
C1834      F1839   1.383       .  S
C1834      F1840   1.384       .  S
C1841      C1842   1.403       .  A
C1841      C1846   1.406       .  A
C1841      H1848   1.083       .  S
C1842      C1843   1.419       .  A
C1843      C1844   1.411       .  A
C1843      C1850   1.518       .  S
C1844      C1845   1.402       .  A
C1844      H1849   1.083       .  S
C1845      C1846   1.414       .  A
C1846      C1847   1.518       .  S
C1847      F1851   1.385       .  S
C1847      F1852   1.382       .  S
C1847      F1853   1.383       .  S
C1850      F1854   1.383       .  S
C1850      F1855   1.381       .  S
C1850      F1856   1.385       .  S
C1857      C1858   1.402       .  A
C1857      C1862   1.407       .  A
C1857      H1864   1.083       .  S
C1858      C1859   1.416       .  A
C1859      C1860   1.407       .  A
C1859      C1866   1.518       .  S
C1860      C1861   1.403       .  A
C1860      H1865   1.083       .  S
C1861      C1862   1.415       .  A
C1862      C1863   1.517       .  S
C1863      F1867   1.385       .  S
C1863      F1868   1.381       .  S
C1863      F1869   1.384       .  S
C1866      F1870   1.383       .  S
C1866      F1871   1.382       .  S
C1866      F1872   1.385       .  S
C1873      C1874   1.403       .  A
C1873      C1878   1.408       .  A
C1873      H1880   1.083       .  S
C1874      C1875   1.418       .  A
C1875      C1876   1.411       .  A
C1875      C1882   1.518       .  S
C1876      C1877   1.403       .  A
C1876      H1881   1.083       .  S
C1877      C1878   1.416       .  A
C1878      C1879   1.517       .  S
C1879      F1883   1.385       .  S
C1879      F1884   1.383       .  S
C1879      F1885   1.381       .  S
C1882      F1886   1.381       .  S
C1882      F1887   1.383       .  S
C1882      F1888   1.385       .  S
C1889      C1890   1.405       .  A
C1889      C1894   1.406       .  A
C1889      H1896   1.083       .  S
C1890      C1891   1.419       .  A
C1891      C1892   1.410       .  A
C1891      C1898   1.518       .  S
C1892      C1893   1.401       .  A
C1892      H1897   1.083       .  S
C1893      C1894   1.413       .  A
C1894      C1895   1.518       .  S
C1895      F1899   1.385       .  S
C1895      F1900   1.383       .  S
C1895      F1901   1.383       .  S
C1898      F1902   1.383       .  S
C1898      F1903   1.382       .  S
C1898      F1904   1.385       .  S
C1905      C1906   1.402       .  A
C1905      C1910   1.408       .  A
C1905      H1912   1.083       .  S
C1906      C1907   1.415       .  A
C1907      C1908   1.408       .  A
C1907      C1914   1.516       .  S
C1908      C1909   1.402       .  A
C1908      H1913   1.083       .  S
C1909      C1910   1.415       .  A
C1910      C1911   1.517       .  S
C1911      F1915   1.384       .  S
C1911      F1916   1.383       .  S
C1911      F1917   1.383       .  S
C1914      F1918   1.382       .  S
C1914      F1919   1.383       .  S
C1914      F1920   1.385       .  S
C1921      C1922   1.404       .  A
C1921      C1926   1.411       .  A
C1921      H1928   1.083       .  S
C1922      C1923   1.417       .  A
C1923      C1924   1.409       .  A
C1923      C1930   1.517       .  S
C1924      C1925   1.402       .  A
C1924      H1929   1.083       .  S
C1925      C1926   1.415       .  A
C1926      C1927   1.517       .  S
C1927      F1931   1.385       .  S
C1927      F1932   1.382       .  S
C1927      F1933   1.383       .  S
C1930      F1934   1.383       .  S
C1930      F1935   1.382       .  S
C1930      F1936   1.385       .  S
C1937      C1938   1.402       .  A
C1937      C1942   1.409       .  A
C1937      H1944   1.083       .  S
C1938      C1939   1.416       .  A
C1939      C1940   1.408       .  A
C1939      C1946   1.517       .  S
C1940      C1941   1.402       .  A
C1940      H1945   1.083       .  S
C1941      C1942   1.416       .  A
C1942      C1943   1.517       .  S
C1943      F1947   1.385       .  S
C1943      F1948   1.382       .  S
C1943      F1949   1.383       .  S
C1946      F1950   1.382       .  S
C1946      F1951   1.383       .  S
C1946      F1952   1.385       .  S
C1953      C1954   1.402       .  A
C1953      C1958   1.408       .  A
C1953      H1960   1.083       .  S
C1954      C1955   1.415       .  A
C1955      C1956   1.408       .  A
C1955      C1962   1.517       .  S
C1956      C1957   1.402       .  A
C1956      H1961   1.083       .  S
C1957      C1958   1.413       .  A
C1958      C1959   1.517       .  S
C1959      F1963   1.384       .  S
C1959      F1964   1.383       .  S
C1959      F1965   1.383       .  S
C1962      F1966   1.383       .  S
C1962      F1967   1.383       .  S
C1962      F1968   1.384       .  S
C1969      C1970   1.403   1_554  A
C1969      C1974   1.412       .  A
C1969      H1976   1.083   1_554  S
C1970      C1971   1.416   1_556  A
C1971      C1972   1.407       .  A
C1971      C1978   1.518   1_554  S
C1972      C1973   1.403       .  A
C1972      H1977   1.083       .  S
C1973      C1974   1.418       .  A
C1974      C1975   1.517       .  S
C1975      F1979   1.385       .  S
C1975      F1980   1.383       .  S
C1975      F1981   1.381       .  S
C1978      F1982   1.381       .  S
C1978      F1983   1.383       .  S
C1978      F1984   1.385   1_556  S
C1985      C1986   1.404       .  A
C1985      C1990   1.408       .  A
C1985      H1992   1.083       .  S
C1986      C1987   1.419       .  A
C1987      C1988   1.414       .  A
C1987      C1994   1.516       .  S
C1988      C1989   1.403       .  A
C1988      H1993   1.083       .  S
C1989      C1990   1.417       .  A
C1990      C1991   1.518       .  S
C1991      F1995   1.385       .  S
C1991      F1996   1.383       .  S
C1991      F1997   1.382       .  S
C1994      F1998   1.382       .  S
C1994      F1999   1.383       .  S
C1994      F2000   1.385       .  S
C2001      C2002   1.403       .  A
C2001      C2006   1.409       .  A
C2001      H2008   1.083       .  S
C2002      C2003   1.417       .  A
C2003      C2004   1.413       .  A
C2003      C2010   1.516       .  S
C2004      C2005   1.404       .  A
C2004      H2009   1.083       .  S
C2005      C2006   1.417       .  A
C2006      C2007   1.518       .  S
C2007      F2011   1.385       .  S
C2007      F2012   1.382       .  S
C2007      F2013   1.383       .  S
C2010      F2014   1.383       .  S
C2010      F2015   1.382       .  S
C2010      F2016   1.384       .  S
C2017      C2018   1.403       .  A
C2017      C2022   1.408   1_556  A
C2017      H2024   1.084       .  S
C2018      C2019   1.419       .  A
C2019      C2020   1.413   1_556  A
C2019      C2026   1.517       .  S
C2020      C2021   1.404       .  A
C2020      H2025   1.083       .  S
C2021      C2022   1.417       .  A
C2022      C2023   1.519       .  S
C2023      F2027   1.384       .  S
C2023      F2028   1.381       .  S
C2023      F2029   1.384       .  S
C2026      F2030   1.383       .  S
C2026      F2031   1.381       .  S
C2026      F2032   1.384   1_556  S
C2033      C2034   1.404       .  A
C2033      C2038   1.413       .  A
C2033      H2040   1.084       .  S
C2034      C2035   1.418       .  A
C2035      C2036   1.406       .  A
C2035      C2042   1.520       .  S
C2036      C2037   1.403       .  A
C2036      H2041   1.084       .  S
C2037      C2038   1.417       .  A
C2038      C2039   1.516       .  S
C2039      F2043   1.385       .  S
C2039      F2044   1.383       .  S
C2039      F2045   1.382       .  S
C2042      F2046   1.381       .  S
C2042      F2047   1.383       .  S
C2042      F2048   1.385       .  S
C2049      C2050   1.402       .  A
C2049      C2054   1.408       .  A
C2049      H2056   1.083       .  S
C2050      C2051   1.414       .  A
C2051      C2052   1.408       .  A
C2051      C2058   1.516       .  S
C2052      C2053   1.402       .  A
C2052      H2057   1.083       .  S
C2053      C2054   1.415       .  A
C2054      C2055   1.517       .  S
C2055      F2059   1.385       .  S
C2055      F2060   1.383       .  S
C2055      F2061   1.383       .  S
C2058      F2062   1.383       .  S
C2058      F2063   1.383       .  S
C2058      F2064   1.385       .  S
C2065      C2066   1.405       .  A
C2065      C2070   1.414       .  A
C2065      H2072   1.083       .  S
C2066      C2067   1.419       .  A
C2067      C2068   1.404       .  A
C2067      C2074   1.519       .  S
C2068      C2069   1.401       .  A
C2068      H2073   1.085       .  S
C2069      C2070   1.416       .  A
C2070      C2071   1.516       .  S
C2071      F2075   1.384       .  S
C2071      F2076   1.383       .  S
C2071      F2077   1.382       .  S
C2074      F2078   1.383       .  S
C2074      F2079   1.382       .  S
C2074      F2080   1.384       .  S
C2081      C2082   1.402       .  A
C2081      C2086   1.409       .  A
C2081      H2088   1.083       .  S
C2082      C2083   1.416       .  A
C2083      C2084   1.409       .  A
C2083      C2090   1.519       .  S
C2084      C2085   1.404   1_655  A
C2084      H2089   1.083   1_655  S
C2085      C2086   1.416   1_455  A
C2086      C2087   1.517   1_655  S
C2087      F2091   1.385   1_455  S
C2087      F2092   1.383       .  S
C2087      F2093   1.382       .  S
C2090      F2094   1.383       .  S
C2090      F2095   1.382       .  S
C2090      F2096   1.384       .  S
C2097      C2098   1.403       .  A
C2097      C2102   1.409       .  A
C2097      H2104   1.083       .  S
C2098      C2099   1.415       .  A
C2099      C2100   1.408       .  A
C2099      C2106   1.517       .  S
C2100      C2101   1.401       .  A
C2100      H2105   1.083       .  S
C2101      C2102   1.414       .  A
C2102      C2103   1.517       .  S
C2103      F2107   1.384       .  S
C2103      F2108   1.383       .  S
C2103      F2109   1.383       .  S
C2106      F2110   1.382       .  S
C2106      F2111   1.383       .  S
C2106      F2112   1.384       .  S
C2113      C2114   1.404       .  A
C2113      C2118   1.410   1_655  A
C2113      H2120   1.083       .  S
C2114      C2115   1.416       .  A
C2115      C2116   1.410       .  A
C2115      C2122   1.517       .  S
C2116      C2117   1.403   1_655  A
C2116      H2121   1.083   1_655  S
C2117      C2118   1.415       .  A
C2118      C2119   1.516       .  S
C2119      F2123   1.385       .  S
C2119      F2124   1.383       .  S
C2119      F2125   1.383       .  S
C2122      F2126   1.382       .  S
C2122      F2127   1.383       .  S
C2122      F2128   1.384       .  S
C2129      C2130   1.401       .  A
C2129      C2134   1.405       .  A
C2129      H2136   1.083       .  S
C2130      C2131   1.416       .  A
C2131      C2132   1.410       .  A
C2131      C2138   1.518       .  S
C2132      C2133   1.404       .  A
C2132      H2137   1.083       .  S
C2133      C2134   1.417       .  A
C2134      C2135   1.519       .  S
C2135      F2139   1.384       .  S
C2135      F2140   1.381       .  S
C2135      F2141   1.383       .  S
C2138      F2142   1.384       .  S
C2138      F2143   1.383       .  S
C2138      F2144   1.382       .  S
C2145      C2146   1.403       .  A
C2145      C2150   1.404       .  A
C2145      H2152   1.083       .  S
C2146      C2147   1.418       .  A
C2147      C2148   1.410       .  A
C2147      C2154   1.518       .  S
C2148      C2149   1.401       .  A
C2148      H2153   1.083       .  S
C2149      C2150   1.413       .  A
C2150      C2151   1.518       .  S
C2151      F2155   1.384       .  S
C2151      F2156   1.383       .  S
C2151      F2157   1.382       .  S
C2154      F2158   1.381       .  S
C2154      F2159   1.383       .  S
C2154      F2160   1.385       .  S
C2161      C2162   1.403       .  A
C2161      C2166   1.410       .  A
C2161      H2168   1.083       .  S
C2162      C2163   1.416       .  A
C2163      C2164   1.404       .  A
C2163      C2170   1.518       .  S
C2164      C2165   1.402       .  A
C2164      H2169   1.084       .  S
C2165      C2166   1.417       .  A
C2166      C2167   1.517       .  S
C2167      F2171   1.385       .  S
C2167      F2172   1.383       .  S
C2167      F2173   1.381       .  S
C2170      F2174   1.382       .  S
C2170      F2175   1.383       .  S
C2170      F2176   1.385       .  S
C2177      C2178   1.401       .  A
C2177      C2182   1.410       .  A
C2177      H2184   1.083       .  S
C2178      C2179   1.415       .  A
C2179      C2180   1.406       .  A
C2179      C2186   1.519       .  S
C2180      C2181   1.404       .  A
C2180      H2185   1.084       .  S
C2181      C2182   1.419       .  A
C2182      C2183   1.517       .  S
C2183      F2187   1.385       .  S
C2183      F2188   1.383       .  S
C2183      F2189   1.381       .  S
C2186      F2190   1.382       .  S
C2186      F2191   1.383       .  S
C2186      F2192   1.385       .  S
C2193      C2194   1.402       .  A
C2193      C2198   1.405   1_556  A
C2193      H2200   1.083       .  S
C2194      C2195   1.417       .  A
C2195      C2196   1.408   1_556  A
C2195      C2202   1.518       .  S
C2196      C2197   1.401       .  A
C2196      H2201   1.083       .  S
C2197      C2198   1.415       .  A
C2198      C2199   1.518       .  S
C2199      F2203   1.384       .  S
C2199      F2204   1.382       .  S
C2199      F2205   1.383       .  S
C2202      F2206   1.384       .  S
C2202      F2207   1.382       .  S
C2202      F2208   1.384       .  S
C2209      C2210   1.403       .  A
C2209      C2214   1.410       .  A
C2209      H2216   1.083       .  S
C2210      C2211   1.415       .  A
C2211      C2212   1.407       .  A
C2211      C2218   1.517       .  S
C2212      C2213   1.402       .  A
C2212      H2217   1.083       .  S
C2213      C2214   1.416       .  A
C2214      C2215   1.517       .  S
C2215      F2219   1.385       .  S
C2215      F2220   1.383       .  S
C2215      F2221   1.382       .  S
C2218      F2222   1.382       .  S
C2218      F2223   1.383       .  S
C2218      F2224   1.385       .  S
C2225      C2226   1.403       .  A
C2225      C2230   1.409       .  A
C2225      H2232   1.083       .  S
C2226      C2227   1.416       .  A
C2227      C2228   1.407       .  A
C2227      C2234   1.518       .  S
C2228      C2229   1.400       .  A
C2228      H2233   1.083       .  S
C2229      C2230   1.414       .  A
C2230      C2231   1.516       .  S
C2231      F2235   1.384       .  S
C2231      F2236   1.383       .  S
C2231      F2237   1.383       .  S
C2234      F2238   1.383       .  S
C2234      F2239   1.382       .  S
C2234      F2240   1.384       .  S
C2241      C2242   1.403       .  A
C2241      C2246   1.411   1_655  A
C2241      H2248   1.083       .  S
C2242      C2243   1.415       .  A
C2243      C2244   1.409   1_655  A
C2243      C2250   1.516       .  S
C2244      C2245   1.402       .  A
C2244      H2249   1.083       .  S
C2245      C2246   1.416       .  A
C2246      C2247   1.517       .  S
C2247      F2251   1.385       .  S
C2247      F2252   1.383       .  S
C2247      F2253   1.383       .  S
C2250      F2254   1.383       .  S
C2250      F2255   1.383       .  S
C2250      F2256   1.385       .  S
C2257      C2258   1.404       .  A
C2257      C2262   1.411       .  A
C2257      H2264   1.083       .  S
C2258      C2259   1.416       .  A
C2259      C2260   1.404   1_655  A
C2259      C2266   1.519       .  S
C2260      C2261   1.401       .  A
C2260      H2265   1.084       .  S
C2261      C2262   1.416   1_455  A
C2262      C2263   1.516   1_655  S
C2263      F2267   1.385   1_455  S
C2263      F2268   1.382       .  S
C2263      F2269   1.383       .  S
C2266      F2270   1.383       .  S
C2266      F2271   1.381       .  S
C2266      F2272   1.385       .  S
C2273      C2274   1.402       .  A
C2273      C2278   1.411       .  A
C2273      H2280   1.083       .  S
C2274      C2275   1.416       .  A
C2275      C2276   1.406       .  A
C2275      C2282   1.519       .  S
C2276      C2277   1.403       .  A
C2276      H2281   1.083       .  S
C2277      C2278   1.420       .  A
C2278      C2279   1.518       .  S
C2279      F2283   1.385       .  S
C2279      F2284   1.381       .  S
C2279      F2285   1.383       .  S
C2282      F2286   1.383       .  S
C2282      F2287   1.381       .  S
C2282      F2288   1.385       .  S
C2289      C2290   1.403       .  A
C2289      C2294   1.411       .  A
C2289      H2296   1.083       .  S
C2290      C2291   1.417       .  A
C2291      C2292   1.410       .  A
C2291      C2298   1.518       .  S
C2292      C2293   1.402       .  A
C2292      H2297   1.083       .  S
C2293      C2294   1.415       .  A
C2294      C2295   1.516       .  S
C2295      F2299   1.384       .  S
C2295      F2300   1.383       .  S
C2295      F2301   1.383       .  S
C2298      F2302   1.383       .  S
C2298      F2303   1.382       .  S
C2298      F2304   1.385       .  S
C2305      C2306   1.403       .  A
C2305      C2310   1.411       .  A
C2305      H2312   1.083       .  S
C2306      C2307   1.415       .  A
C2307      C2308   1.405       .  A
C2307      C2314   1.519       .  S
C2308      C2309   1.403       .  A
C2308      H2313   1.084       .  S
C2309      C2310   1.416       .  A
C2310      C2311   1.517       .  S
C2311      F2315   1.384       .  S
C2311      F2316   1.383       .  S
C2311      F2317   1.382       .  S
C2314      F2318   1.382       .  S
C2314      F2319   1.383       .  S
C2314      F2320   1.385       .  S
C2321      C2322   1.404       .  A
C2321      C2326   1.412       .  A
C2321      H2328   1.083       .  S
C2322      C2323   1.416       .  A
C2323      C2324   1.409       .  A
C2323      C2330   1.516       .  S
C2324      C2325   1.402       .  A
C2324      H2329   1.083       .  S
C2325      C2326   1.416       .  A
C2326      C2327   1.516       .  S
C2327      F2331   1.384       .  S
C2327      F2332   1.383       .  S
C2327      F2333   1.383       .  S
C2330      F2334   1.383       .  S
C2330      F2335   1.383       .  S
C2330      F2336   1.384       .  S
C2337      C2338   1.402       .  A
C2337      C2342   1.411       .  A
C2337      H2344   1.083       .  S
C2338      C2339   1.413       .  A
C2339      C2340   1.406       .  A
C2339      C2346   1.518       .  S
C2340      C2341   1.404       .  A
C2340      H2345   1.083       .  S
C2341      C2342   1.418       .  A
C2342      C2343   1.517       .  S
C2343      F2347   1.385       .  S
C2343      F2348   1.382       .  S
C2343      F2349   1.383       .  S
C2346      F2350   1.383       .  S
C2346      F2351   1.383       .  S
C2346      F2352   1.384       .  S
C2353      C2354   1.403   1_554  A
C2353      C2358   1.409       .  A
C2353      H2360   1.083   1_554  S
C2354      C2355   1.417   1_556  A
C2355      C2356   1.409       .  A
C2355      C2362   1.517   1_554  S
C2356      C2357   1.402       .  A
C2356      H2361   1.083       .  S
C2357      C2358   1.415       .  A
C2358      C2359   1.518       .  S
C2359      F2363   1.385       .  S
C2359      F2364   1.382       .  S
C2359      F2365   1.383       .  S
C2362      F2366   1.383       .  S
C2362      F2367   1.382       .  S
C2362      F2368   1.385   1_556  S
C2369      C2370   1.405       .  A
C2369      C2374   1.411       .  A
C2369      H2376   1.080       .  S
C2370      C2371   1.417       .  A
C2371      C2372   1.406       .  A
C2371      C2378   1.519       .  S
C2372      C2373   1.401       .  A
C2372      H2377   1.081       .  S
C2373      C2374   1.416       .  A
C2374      C2375   1.517       .  S
C2375      F2379   1.385       .  S
C2375      F2380   1.382       .  S
C2375      F2381   1.383       .  S
C2378      F2382   1.383       .  S
C2378      F2383   1.381       .  S
C2378      F2384   1.385       .  S
C2385      C2386   1.402   1_545  A
C2385      C2390   1.409       .  A
C2385      H2392   1.083   1_545  S
C2386      C2387   1.415   1_565  A
C2387      C2388   1.410       .  A
C2387      C2394   1.516   1_545  S
C2388      C2389   1.403       .  A
C2388      H2393   1.083       .  S
C2389      C2390   1.416       .  A
C2390      C2391   1.517       .  S
C2391      F2395   1.385       .  S
C2391      F2396   1.383       .  S
C2391      F2397   1.382       .  S
C2394      F2398   1.383       .  S
C2394      F2399   1.383       .  S
C2394      F2400   1.384   1_565  S
C2401      C2402   1.404       .  A
C2401      C2406   1.411       .  A
C2401      H2408   1.083       .  S
C2402      C2403   1.418       .  A
C2403      C2404   1.407       .  A
C2403      C2410   1.518       .  S
C2404      C2405   1.401       .  A
C2404      H2409   1.083       .  S
C2405      C2406   1.416       .  A
C2406      C2407   1.517       .  S
C2407      F2411   1.385       .  S
C2407      F2412   1.383       .  S
C2407      F2413   1.382       .  S
C2410      F2414   1.381       .  S
C2410      F2415   1.383       .  S
C2410      F2416   1.385       .  S
C2417      C2418   1.403       .  A
C2417      C2422   1.406   1_545  A
C2417      H2424   1.084       .  S
C2418      C2419   1.417       .  A
C2419      C2420   1.410   1_545  A
C2419      C2426   1.516       .  S
C2420      C2421   1.402       .  A
C2420      H2425   1.083       .  S
C2421      C2422   1.413       .  A
C2422      C2423   1.516       .  S
C2423      F2427   1.385       .  S
C2423      F2428   1.383       .  S
C2423      F2429   1.383       .  S
C2426      F2430   1.382       .  S
C2426      F2431   1.383       .  S
C2426      F2432   1.385       .  S
C2433      C2434   1.402       .  A
C2433      C2438   1.408       .  A
C2433      H2440   1.083       .  S
C2434      C2435   1.414       .  A
C2435      C2436   1.406       .  A
C2435      C2442   1.517       .  S
C2436      C2437   1.402       .  A
C2436      H2441   1.084       .  S
C2437      C2438   1.415       .  A
C2438      C2439   1.516       .  S
C2439      F2443   1.382       .  S
C2439      F2444   1.383       .  S
C2439      F2445   1.385       .  S
C2442      F2446   1.383       .  S
C2442      F2447   1.382       .  S
C2442      F2448   1.385       .  S
C2449      C2450   1.401       .  A
C2449      C2454   1.406       .  A
C2449      H2456   1.083       .  S
C2450      C2451   1.414       .  A
C2451      C2452   1.409       .  A
C2451      C2458   1.516       .  S
C2452      C2453   1.405       .  A
C2452      H2457   1.083       .  S
C2453      C2454   1.418       .  A
C2454      C2455   1.519       .  S
C2455      F2459   1.385       .  S
C2455      F2460   1.381       .  S
C2455      F2461   1.383       .  S
C2458      F2462   1.384       .  S
C2458      F2463   1.382       .  S
C2458      F2464   1.385       .  S
C2465      C2466   1.404       .  A
C2465      C2470   1.411       .  A
C2465      H2472   1.083       .  S
C2466      C2467   1.417       .  A
C2467      C2468   1.409       .  A
C2467      C2474   1.517       .  S
C2468      C2469   1.402       .  A
C2468      H2473   1.083       .  S
C2469      C2470   1.415       .  A
C2470      C2471   1.516       .  S
C2471      F2475   1.384       .  S
C2471      F2476   1.383       .  S
C2471      F2477   1.383       .  S
C2474      F2478   1.382       .  S
C2474      F2479   1.383       .  S
C2474      F2480   1.385       .  S
C2481      C2482   1.404       .  A
C2481      C2486   1.414       .  A
C2481      H2488   1.082       .  S
C2482      C2483   1.415       .  A
C2483      C2484   1.404       .  A
C2483      C2490   1.518       .  S
C2484      C2485   1.403       .  A
C2484      H2489   1.083       .  S
C2485      C2486   1.420       .  A
C2486      C2487   1.517       .  S
C2487      F2491   1.385       .  S
C2487      F2492   1.382       .  S
C2487      F2493   1.383       .  S
C2490      F2494   1.383       .  S
C2490      F2495   1.381       .  S
C2490      F2496   1.385       .  S
C2497      C2498   1.403       .  A
C2497      C2502   1.408       .  A
C2497      H2504   1.083       .  S
C2498      C2499   1.416       .  A
C2499      C2500   1.406       .  A
C2499      C2506   1.518       .  S
C2500      C2501   1.402       .  A
C2500      H2505   1.083       .  S
C2501      C2502   1.416       .  A
C2502      C2503   1.518       .  S
C2503      F2507   1.385       .  S
C2503      F2508   1.383       .  S
C2503      F2509   1.381       .  S
C2506      F2510   1.382       .  S
C2506      F2511   1.383       .  S
C2506      F2512   1.385       .  S
C2513      C2514   1.403       .  A
C2513      C2518   1.406       .  A
C2513      H2520   1.083       .  S
C2514      C2515   1.416       .  A
C2515      C2516   1.410       .  A
C2515      C2522   1.517       .  S
C2516      C2517   1.403       .  A
C2516      H2521   1.083       .  S
C2517      C2518   1.414       .  A
C2518      C2519   1.518       .  S
C2519      F2523   1.384       .  S
C2519      F2524   1.383       .  S
C2519      F2525   1.383       .  S
C2522      F2526   1.383       .  S
C2522      F2527   1.382       .  S
C2522      F2528   1.385       .  S
C2529      C2530   1.403       .  A
C2529      C2534   1.408       .  A
C2529      H2536   1.083       .  S
C2530      C2531   1.417       .  A
C2531      C2532   1.414       .  A
C2531      C2538   1.517       .  S
C2532      C2533   1.405       .  A
C2532      H2537   1.083       .  S
C2533      C2534   1.415       .  A
C2534      C2535   1.517       .  S
C2535      F2539   1.384       .  S
C2535      F2540   1.383       .  S
C2535      F2541   1.383       .  S
C2538      F2542   1.383       .  S
C2538      F2543   1.383       .  S
C2538      F2544   1.384       .  S
C2545      C2546   1.402       .  A
C2545      C2550   1.411   1_556  A
C2545      H2552   1.083       .  S
C2546      C2547   1.414       .  A
C2547      C2548   1.409   1_556  A
C2547      C2554   1.518       .  S
C2548      C2549   1.406       .  A
C2548      H2553   1.083       .  S
C2549      C2550   1.420       .  A
C2550      C2551   1.518       .  S
C2551      F2555   1.385       .  S
C2551      F2556   1.383       .  S
C2551      F2557   1.381       .  S
C2554      F2558   1.381       .  S
C2554      F2559   1.384       .  S
C2554      F2560   1.384   1_556  S
