geometry optimzed in LAMMPS
_audit_creation_date              2020-12-01 
_audit_creation_method            'lammps2cif' 
_symmetry_space_group_name_H-M    'P1' 
_symmetry_Int_Tables_number       1 
_symmetry_cell_setting            triclinic 
loop_ 
_symmetry_equiv_pos_as_xyz 
  x,y,z 
_cell_length_a                    85.99070183 
_cell_length_b                    85.24337483812975 
_cell_length_c                    33.920942250659834 
_cell_angle_alpha                 90.2255482217892 
_cell_angle_beta                  89.53040695000261 
_cell_angle_gamma                 126.97343920767236 
loop_ 
_atom_site_label 
_atom_site_type_symbol 
_atom_site_fract_x 
_atom_site_fract_y 
_atom_site_fract_z 
_atom_site_charge 
N1          N  0.46845907  0.94795715  0.79894770    -0.27300
N2          N  0.48015500  0.95728147  0.82934905    -0.35200
C3          C  0.48524301  0.97558557  0.83100130     0.01000
C4          C  0.47648042  0.97815435  0.80035923     0.07100
C5          C  0.46571734  0.96021507  0.78099141    -0.06000
H6          H  0.49289395  0.98552343  0.85544789     0.07700
H7          H  0.45525063  0.95582713  0.75784971     0.08900
Cu8        Cu  0.48507726  0.94424109  0.87427477     0.44200
Cu9        Cu  0.45415495  0.91800386  0.78645070     0.42000
Cu10       Cu  0.45685053  0.89272855  0.86750296     0.43900
N11         N  0.48293091  0.92697980  0.92028147    -0.34700
N12         N  0.47234960  0.90770820  0.91708092    -0.28900
C13         C  0.47114414  0.89988590  0.95222452    -0.05000
C14         C  0.48127626  0.91494095  0.97926376     0.07200
C15         C  0.48870141  0.93199113  0.95797790     0.01000
H16         H  0.46213728  0.88428677  0.95822304     0.08600
H17         H  0.49624270  0.94669409  0.96963043     0.07700
N18         N  0.44216050  0.87896781  0.81644213    -0.36100
N19         N  0.44141872  0.88782932  0.78546369    -0.28300
C20         C  0.43189161  0.87439759  0.75641006    -0.03500
C21         C  0.42668223  0.85638184  0.76996919     0.05100
C22         C  0.43307246  0.85992691  0.80846617     0.03200
H23         H  0.42931688  0.87756683  0.72736683     0.08300
H24         H  0.43142679  0.84948477  0.82940147     0.07100
N25         N  0.45383282  0.93237319  0.19933435    -0.27300
N26         N  0.46946094  0.94336494  0.17664377    -0.35200
C27         C  0.47532195  0.96196885  0.17696123     0.01000
C28         C  0.46287942  0.96300372  0.20082692     0.07100
C29         C  0.44924331  0.94386805  0.21409187    -0.06000
H30         H  0.48627692  0.97333671  0.15723089     0.07700
H31         H  0.43600591  0.93840607  0.23033754     0.08900
Cu32       Cu  0.47843757  0.93225232  0.13569059     0.44200
Cu33       Cu  0.43787906  0.90160850  0.20359514     0.42000
Cu34       Cu  0.44751702  0.88014699  0.12334497     0.43900
N35         N  0.47863398  0.91866744  0.08526486    -0.34700
N36         N  0.46707169  0.89941264  0.08066963    -0.28900
C37         C  0.46771848  0.89517241  0.04280404    -0.05000
C38         C  0.48004162  0.91262568  0.02238341     0.07200
C39         C  0.48682395  0.92723049  0.05030150     0.01000
H40         H  0.45838665  0.88056998  0.03040342     0.08600
H41         H  0.49548036  0.94286712  0.04492453     0.07700
N42         N  0.42839108  0.86383659  0.16917308    -0.36100
N43         N  0.42506852  0.87141153  0.19925347    -0.28300
C44         C  0.41302559  0.85681125  0.22496116    -0.03500
C45         C  0.40856821  0.83931335  0.21008904     0.05100
C46         C  0.41845203  0.84438712  0.17456887     0.03200
H47         H  0.40809978  0.85880157  0.25266726     0.08300
H48         H  0.41901655  0.83475062  0.15478049     0.07100
N49         N  0.47751147  0.02151191  0.80325967    -0.27300
N50         N  0.46240442  0.00908112  0.82623272    -0.35200
C51         C  0.45894410  0.99149952  0.82535553     0.01000
C52         C  0.47241682  0.99263938  0.80077781     0.07100
C53         C  0.48418915  0.01196685  0.78755054    -0.06000
H54         H  0.44856837  0.97929853  0.84431549     0.07700
H55         H  0.49732302  0.01886465  0.76995595     0.08900
Cu56       Cu  0.45009535  0.01678680  0.86679010     0.44200
Cu57       Cu  0.48913107  0.05136771  0.79856795     0.42000
Cu58       Cu  0.47046978  0.06664364  0.87572696     0.43900
N59         N  0.44593495  0.02789939  0.91647957    -0.34700
N60         N  0.45375800  0.04670232  0.92013699    -0.28900
C61         C  0.45154271  0.05029928  0.95759742    -0.05000
C62         C  0.44201658  0.03287867  0.97858805     0.07200
C63         C  0.43862720  0.01897273  0.95151455     0.01000
H64         H  0.45790154  0.06478339  0.96936347     0.08600
H65         H  0.43280191  0.00389455  0.95751033     0.07700
N66         N  0.48871020  0.08451503  0.83016078    -0.36100
N67         N  0.49584941  0.07952675  0.80229947    -0.28300
C68         C  0.50730185  0.09515177  0.77825328    -0.03500
C69         C  0.50752440  0.11068033  0.79209704     0.05100
C70         C  0.49531248  0.10316671  0.82464193     0.03200
H71         H  0.51496322  0.09524945  0.75268574     0.08300
H72         H  0.49121802  0.11060114  0.84286504     0.07100
N73         N  0.46655947  0.00793524  0.19514107    -0.27300
N74         N  0.45291619  0.99656959  0.16884598    -0.35200
C75         C  0.44865567  0.97860805  0.16958995     0.01000
C76         C  0.46006709  0.97839242  0.19755169     0.07100
C77         C  0.47151371  0.99733069  0.21283518    -0.06000
H78         H  0.43905584  0.96699307  0.14898895     0.07700
H79         H  0.48315336  0.00318099  0.23391624     0.08900
Cu80       Cu  0.44306813  0.00619325  0.12689100     0.44200
Cu81       Cu  0.47827745  0.03776010  0.20334981     0.42000
Cu82       Cu  0.45819932  0.05467352  0.13559979     0.43900
N83         N  0.44013251  0.02032244  0.08143748    -0.34700
N84         N  0.44576772  0.03847919  0.08483786    -0.28900
C85         C  0.44582915  0.04522966  0.04905420    -0.05000
C86         C  0.44002405  0.03060462  0.02171919     0.07200
C87         C  0.43637854  0.01494943  0.04334312     0.01000
H88         H  0.45147758  0.06025064  0.04297661     0.08600
H89         H  0.43318410  0.00144935  0.03182824     0.07700
N90         N  0.47719775  0.07157740  0.18047913    -0.36100
N91         N  0.48530122  0.06617908  0.20435045    -0.28300
C92         C  0.49819569  0.08169917  0.22730644    -0.03500
C93         C  0.49836922  0.09760306  0.21682730     0.05100
C94         C  0.48455900  0.09036310  0.18754111     0.03200
H95         H  0.50702743  0.08154519  0.24959886     0.08300
H96         H  0.48006164  0.09812317  0.17227439     0.07100
N97         N  0.91351120  0.46918458  0.80787527    -0.27300
N98         N  0.92379994  0.48081868  0.83783646    -0.35200
C99         C  0.94123476  0.48430774  0.83824026     0.01000
C100        C  0.94233853  0.47463095  0.80697155     0.07100
C101        C  0.92438110  0.46493189  0.78849049    -0.06000
H102        H  0.95171547  0.49193215  0.86170221     0.07700
H103        H  0.91914249  0.45450676  0.76456194     0.08900
Cu104      Cu  0.91291349  0.48790976  0.88316091     0.44200
Cu105      Cu  0.88424787  0.45811275  0.79917154     0.42000
Cu106      Cu  0.86209821  0.46331881  0.88678728     0.43900
N107        N  0.89870411  0.48644884  0.93386711    -0.34700
N108        N  0.87965260  0.47679763  0.93568505    -0.28900
C109        C  0.87423746  0.47521861  0.97364208    -0.05000
C110        C  0.89072566  0.48418343  0.99676736     0.07200
C111        C  0.90597859  0.49126102  0.97051696     0.01000
H112        H  0.85928755  0.46678305  0.98376309     0.08600
H113        H  0.92096189  0.49778287  0.97765623     0.07700
N114        N  0.84768465  0.45094519  0.83407316    -0.36100
N115        N  0.85545808  0.44932985  0.80189110    -0.28300
C116        C  0.84193660  0.44130927  0.77313986    -0.03500
C117        C  0.82486184  0.43742220  0.78828996     0.05100
C118        C  0.82917753  0.44386754  0.82685469     0.03200
H119        H  0.84427726  0.43836913  0.74349021     0.08300
H120        H  0.81963592  0.44374404  0.84805703     0.07100
N121        N  0.91878788  0.46134643  0.21841134    -0.27300
N122        N  0.92845351  0.47379529  0.18887230    -0.35200
C123        C  0.94655393  0.47887132  0.18728744     0.01000
C124        C  0.94868206  0.46933844  0.21709271     0.07100
C125        C  0.93068845  0.45812952  0.23602003    -0.06000
H126        H  0.95678542  0.48727873  0.16353692     0.07700
H127        H  0.92609087  0.44719495  0.25862408     0.08900
Cu128      Cu  0.91647846  0.48029991  0.14495973     0.44200
Cu129      Cu  0.88895852  0.44712817  0.22947863     0.42000
Cu130      Cu  0.86605100  0.45412986  0.14836870     0.43900
N131        N  0.90116222  0.48076820  0.09865279    -0.34700
N132        N  0.88208132  0.47078466  0.10020979    -0.28900
C133        C  0.87556796  0.47157628  0.06498010    -0.05000
C134        C  0.89136764  0.48251603  0.03977245     0.07200
C135        C  0.90740440  0.48819588  0.06213659     0.01000
H136        H  0.86035633  0.46359199  0.05758210     0.08600
H137        H  0.92227330  0.49592255  0.05192545     0.07700
N138        N  0.85140915  0.43747310  0.19750574    -0.36100
N139        N  0.85919771  0.43493721  0.22796467    -0.28300
C140        C  0.84495564  0.42369433  0.25491248    -0.03500
C141        C  0.82750037  0.41870931  0.23987591     0.05100
C142        C  0.83231604  0.42792113  0.20378654     0.03200
H143        H  0.84709856  0.41944325  0.28317477     0.08300
H144        H  0.82269412  0.42811493  0.18378780     0.07100
N145        N  0.98688434  0.47890522  0.79991353    -0.27300
N146        N  0.97741840  0.46591173  0.82870529    -0.35200
C147        C  0.95931059  0.46077169  0.83171217     0.01000
C148        C  0.95691042  0.47081293  0.80361282     0.07100
C149        C  0.97480573  0.48238020  0.78423872    -0.06000
H150        H  0.94937731  0.45214079  0.85571698     0.07700
H151        H  0.97927948  0.49383808  0.76299460     0.08900
Cu152      Cu  0.99006329  0.45962495  0.87129899     0.44200
Cu153      Cu  0.01686301  0.49365672  0.78784435     0.42000
Cu154      Cu  0.04105023  0.48666379  0.86548923     0.43900
N155        N  0.00639019  0.46191953  0.91858148    -0.34700
N156        N  0.02553137  0.47242138  0.91647375    -0.28900
C157        C  0.03257321  0.47405759  0.95270502    -0.05000
C158        C  0.01708410  0.46410667  0.97896550     0.07200
C159        C  0.00066739  0.45649695  0.95628918     0.01000
H160        H  0.04789863  0.48288747  0.95971054     0.08600
H161        H  0.98586088  0.44892437  0.96679082     0.07700
N162        N  0.05503569  0.50283010  0.81491724    -0.36100
N163        N  0.04679751  0.50595978  0.78637767    -0.28300
C164        C  0.06074995  0.51819328  0.75961836    -0.03500
C165        C  0.07855267  0.52316753  0.77252911     0.05100
C166        C  0.07412816  0.51280385  0.80727362     0.03200
H167        H  0.05826769  0.52353709  0.73335202     0.08300
H168        H  0.08415599  0.51272121  0.82615040     0.07100
N169        N  0.99384244  0.47481332  0.21486870    -0.27300
N170        N  0.98392866  0.46213788  0.18596797    -0.35200
C171        C  0.96562577  0.45651548  0.18639125     0.01000
C172        C  0.96362081  0.46601425  0.21672005     0.07100
C173        C  0.98189350  0.47768739  0.23401082    -0.06000
H174        H  0.95526911  0.44815870  0.16305443     0.07700
H175        H  0.98665669  0.48889784  0.25609085     0.08900
Cu176      Cu  0.99594974  0.45771630  0.13813006     0.44200
Cu177      Cu  0.02408478  0.49029092  0.22165321     0.42000
Cu178      Cu  0.04680540  0.49106395  0.12991785     0.43900
N179        N  0.01041878  0.46219611  0.08544539    -0.34700
N180        N  0.02953084  0.47488571  0.08253102    -0.28900
C181        C  0.03486734  0.47663504  0.04453301    -0.05000
C182        C  0.01824220  0.46461786  0.02228290     0.07200
C183        C  0.00297176  0.45564113  0.04918340     0.01000
H184        H  0.04963855  0.48684575  0.03373218     0.08600
H185        H  0.98758072  0.44598747  0.04270765     0.07700
N186        N  0.06199067  0.50498364  0.18080127    -0.36100
N187        N  0.05414575  0.50440163  0.21496492    -0.28300
C188        C  0.06843083  0.51366553  0.24212630    -0.03500
C189        C  0.08607579  0.52058772  0.22383360     0.05100
C190        C  0.08121733  0.51468653  0.18503932     0.03200
H191        H  0.06601032  0.51463740  0.27307824     0.08300
H192        H  0.09091022  0.51683773  0.16153590     0.07100
C193        C  0.69488498  0.38116664  0.65475373    -0.02500
C194        C  0.57087971  0.24311417  0.65779602    -0.02500
C195        C  0.56731866  0.35398642  0.64738759    -0.02500
C196        C  0.69418309  0.36204442  0.35699230    -0.02500
C197        C  0.56382163  0.22889361  0.36017742    -0.02500
C198        C  0.57192719  0.34571375  0.34416454    -0.02500
C199        C  0.33239049  0.59901759  0.66028569    -0.02500
C200        C  0.34699211  0.72086018  0.63979980    -0.02500
C201        C  0.21248438  0.58966959  0.64704235    -0.02500
C202        C  0.33500476  0.59397024  0.35471844    -0.02500
C203        C  0.34764975  0.70994331  0.35098929    -0.02500
C204        C  0.21438832  0.57502713  0.36138441    -0.02500
N205        N  0.42456324  0.48694843  0.81184281    -0.27300
N206        N  0.41584405  0.47083782  0.83362548    -0.35200
C207        C  0.42666810  0.46428359  0.83404525     0.01000
C208        C  0.44321299  0.47667954  0.81167598     0.07100
C209        C  0.44159762  0.49113819  0.79846574    -0.06000
H210        H  0.42367811  0.45247180  0.85269570     0.07700
H211        H  0.45252325  0.50429624  0.78230094     0.08900
Cu212      Cu  0.39302965  0.46110731  0.87212329     0.44200
Cu213      Cu  0.41280207  0.50287383  0.80507715     0.42000
Cu214      Cu  0.37553121  0.48901806  0.87964567     0.43900
N215        N  0.37874396  0.46047659  0.92191897    -0.34700
N216        N  0.37233985  0.47113831  0.92492719    -0.28900
C217        C  0.36774425  0.47138047  0.96276852    -0.05000
C218        C  0.37177320  0.46058067  0.98475797     0.07200
C219        C  0.37857323  0.45374070  0.95781518     0.01000
H220        H  0.36382177  0.48048219  0.97395843     0.08600
H221        H  0.38491771  0.44628893  0.96435331     0.07700
N222        N  0.38226122  0.50793777  0.83345418    -0.36100
N223        N  0.39565501  0.51341813  0.80595390    -0.28300
C224        C  0.39532381  0.52544628  0.78045897    -0.03500
C225        C  0.38086734  0.52726946  0.79237200     0.05100
C226        C  0.37327156  0.51617232  0.82643928     0.03200
H227        H  0.40454654  0.53200212  0.75459815     0.08300
H228        H  0.36188276  0.51411543  0.84498269     0.07100
N229        N  0.42317881  0.47739346  0.20803615    -0.27300
N230        N  0.41823096  0.46524034  0.17810160    -0.35200
C231        C  0.42957580  0.45927719  0.17794780     0.01000
C232        C  0.44226310  0.46788707  0.20925702     0.07100
C233        C  0.43801713  0.47954103  0.22736031    -0.06000
H234        H  0.42982029  0.45076072  0.15454946     0.07700
H235        H  0.44604939  0.48989247  0.25102485     0.08900
Cu236      Cu  0.39943092  0.46006996  0.13314201     0.44200
Cu237      Cu  0.41108885  0.49235694  0.21835746     0.42000
Cu238      Cu  0.37938193  0.48598484  0.13949906     0.43900
N239        N  0.38424538  0.46096458  0.08707812    -0.34700
N240        N  0.37691872  0.47080123  0.08964383    -0.28900
C241        C  0.37017894  0.47103412  0.05424251    -0.05000
C242        C  0.37348797  0.46088892  0.02793214     0.07200
C243        C  0.38236894  0.45462315  0.04978966     0.01000
H244        H  0.36455563  0.47916238  0.04762672     0.08600
H245        H  0.38832003  0.44729311  0.03883071     0.07700
N246        N  0.38454385  0.50201849  0.18980206    -0.36100
N247        N  0.39619450  0.50484074  0.21874494    -0.28300
C248        C  0.39616247  0.51632100  0.24627913    -0.03500
C249        C  0.38392374  0.52083855  0.23370179     0.05100
C250        C  0.37679126  0.51139795  0.19801037     0.03200
H251        H  0.40420092  0.52081103  0.27356079     0.08300
H252        H  0.36673575  0.51143973  0.17912433     0.07100
N253        N  0.47810652  0.46558262  0.81564179    -0.27300
N254        N  0.48420601  0.47850537  0.84452182    -0.35200
C255        C  0.47402799  0.48581822  0.84428772     0.01000
C256        C  0.46079023  0.47732020  0.81383069     0.07100
C257        C  0.46355216  0.46425719  0.79672921    -0.06000
H258        H  0.47487252  0.49521233  0.86709092     0.07700
H259        H  0.45472400  0.45363661  0.77395138     0.08900
Cu260      Cu  0.50287691  0.48289412  0.88901530     0.44200
Cu261      Cu  0.48901608  0.44912491  0.80653473     0.42000
Cu262      Cu  0.52270521  0.45674746  0.88365813     0.43900
N263        N  0.51752851  0.48159508  0.93565426    -0.34700
N264        N  0.52486533  0.47175196  0.93372318    -0.28900
C265        C  0.53135161  0.47154886  0.96954293    -0.05000
C266        C  0.52785821  0.48175112  0.99532190     0.07200
C267        C  0.51912458  0.48795343  0.97278793     0.01000
H268        H  0.53707790  0.46356997  0.97672156     0.08600
H269        H  0.51325948  0.49546429  0.98308236     0.07700
N270        N  0.51638689  0.43988424  0.83396095    -0.36100
N271        N  0.50389503  0.43629635  0.80618819    -0.28300
C272        C  0.50327468  0.42411104  0.77938611    -0.03500
C273        C  0.51598898  0.41999936  0.79110201     0.05100
C274        C  0.52405050  0.43041410  0.82558117     0.03200
H275        H  0.49459844  0.41899865  0.75290716     0.08300
H276        H  0.53473041  0.43100193  0.84354907     0.07100
N277        N  0.47988695  0.46077613  0.21296246    -0.27300
N278        N  0.48803204  0.47642726  0.19000730    -0.35200
C279        C  0.47664433  0.48230152  0.18893172     0.01000
C280        C  0.46044585  0.46989066  0.21220557     0.07100
C281        C  0.46281065  0.45621614  0.22665753    -0.06000
H282        H  0.47891553  0.49344182  0.16912478     0.07700
H283        H  0.45224934  0.44313246  0.24342480     0.08900
Cu284      Cu  0.51050463  0.48578451  0.15080286     0.44200
Cu285      Cu  0.49170939  0.44531285  0.22024988     0.42000
Cu286      Cu  0.53055907  0.46026427  0.14866008     0.43900
N287        N  0.52407429  0.48509246  0.10114990    -0.34700
N288        N  0.53128735  0.47513467  0.09985709    -0.28900
C289        C  0.53511413  0.47358191  0.06208504    -0.05000
C290        C  0.52987523  0.48293062  0.03851589     0.07200
C291        C  0.52305469  0.49015552  0.06434537     0.01000
H292        H  0.53964491  0.46479031  0.05231573     0.08600
H293        H  0.51608568  0.49687282  0.05673655     0.07700
N294        N  0.52375488  0.44209470  0.19637250    -0.36100
N295        N  0.50918088  0.43557219  0.22141607    -0.28300
C296        C  0.50834778  0.42270722  0.24626713    -0.03500
C297        C  0.52333851  0.42137563  0.23667556     0.05100
C298        C  0.53263487  0.43392035  0.20483004     0.03200
H299        H  0.49738581  0.41466783  0.26900153     0.08300
H300        H  0.54495991  0.43681146  0.18844535     0.07100
C301        C  0.30000563  0.65613147  0.36561694    -0.11400
C302        C  0.28685086  0.65509771  0.33978090     0.15200
C303        C  0.29346631  0.67157378  0.31589879     0.02100
C304        C  0.31299267  0.68839387  0.31825444    -0.15700
C305        C  0.32601720  0.69041122  0.34704405    -0.10600
C306        C  0.31891065  0.67332953  0.37067202     0.08800
C307        C  0.26627045  0.63685050  0.34175604     0.09800
S308        S  0.27773891  0.67256398  0.28285457    -0.24900
H309        H  0.31758047  0.70013586  0.29781901     0.20100
S310        S  0.33271530  0.67302850  0.41029702    -0.30600
H311        H  0.29503380  0.64333639  0.38334092     0.10400
C312        C  0.25748706  0.62299277  0.31119329     0.03600
C313        C  0.23974652  0.60443908  0.31829083    -0.12900
C314        C  0.23089667  0.59806762  0.35637949    -0.08600
C315        C  0.24051056  0.61254111  0.38729594     0.07000
C316        C  0.25698366  0.63168683  0.37853187    -0.13600
S317        S  0.26976611  0.62800302  0.26429684    -0.30600
H318        H  0.23338681  0.59407303  0.29426475     0.11300
S319        S  0.23625970  0.60763726  0.43962991    -0.27700
H320        H  0.26429810  0.64229310  0.40217576     0.08500
H321        H  0.31714934  0.65635797  0.43035174     0.26900
H322        H  0.25630143  0.60939603  0.24742139     0.21700
H323        H  0.24279687  0.62654611  0.45137852     0.27100
H324        H  0.26020368  0.65877374  0.30285354     0.15900
C325        C  0.35642904  0.57562256  0.28011012    -0.11400
C326        C  0.35994667  0.56502675  0.30485227     0.15200
C327        C  0.35544711  0.56365919  0.34503476     0.02100
C328        C  0.34772223  0.57297982  0.35968316    -0.15700
C329        C  0.34447462  0.58448991  0.33576626    -0.10600
C330        C  0.34849494  0.58496796  0.29451862     0.08800
C331        C  0.36611589  0.55363203  0.28720809     0.09800
S332        S  0.35782967  0.54896265  0.37900403    -0.24900
H333        H  0.34376438  0.57027998  0.39046548     0.20100
S334        S  0.34262600  0.59599335  0.25824196    -0.30600
H335        H  0.35914996  0.57579127  0.24882850     0.10400
C336        C  0.35227541  0.53452284  0.27277070     0.03600
C337        C  0.35856496  0.52414964  0.25597643    -0.12900
C338        C  0.37844233  0.53238160  0.25363958    -0.08600
C339        C  0.39229516  0.55156235  0.26831876     0.07000
C340        C  0.38598136  0.56195814  0.28493539    -0.13600
S341        S  0.32658365  0.52338010  0.27577416    -0.30600
H342        H  0.34794137  0.50949086  0.24465068     0.11300
S343        S  0.41815903  0.56393365  0.26511566    -0.27700
H344        H  0.39661313  0.57669991  0.29594755     0.08500
H345        H  0.35471012  0.59760998  0.22775991     0.26900
H346        H  0.31992907  0.50526470  0.25881552     0.21700
H347        H  0.41772288  0.55642651  0.22781661     0.27100
H348        H  0.37416729  0.55194505  0.36099555     0.15900
C349        C  0.35020137  0.64685388  0.36146686    -0.11400
C350        C  0.36550611  0.65734220  0.33463806     0.15200
C351        C  0.37347164  0.64829329  0.31847656     0.02100
C352        C  0.36470919  0.62838018  0.32748221    -0.15700
C353        C  0.34729749  0.61686334  0.35027545    -0.10600
C354        C  0.34113178  0.62723857  0.36985729     0.08800
C355        C  0.37152867  0.67738254  0.32578974     0.09800
S356        S  0.39417391  0.66093111  0.28554607    -0.24900
H357        H  0.37129519  0.62193224  0.31528445     0.20100
S358        S  0.31999812  0.61592757  0.40172580    -0.30600
H359        H  0.34429044  0.65383632  0.37410072     0.10400
C360        C  0.36124676  0.67964007  0.29742826     0.03600
C361        C  0.35590820  0.69201183  0.30523683    -0.12900
C362        C  0.36029462  0.70239240  0.34141644    -0.08600
C363        C  0.37364275  0.70227205  0.36674403     0.07000
C364        C  0.37953596  0.69047433  0.35731175    -0.13600
S365        S  0.35320791  0.66518184  0.25296460    -0.30600
H366        H  0.34670066  0.69231822  0.28420251     0.11300
S367        S  0.38120135  0.71308709  0.41500061    -0.27700
H368        H  0.38755097  0.68861726  0.37887622     0.08500
H369        H  0.32683706  0.63271455  0.42456338     0.26900
H370        H  0.34151178  0.67040583  0.23911535     0.21700
H371        H  0.39886089  0.71543254  0.41577680     0.27100
H372        H  0.39990541  0.68000603  0.29212506     0.15900
C373        C  0.24163153  0.55639563  0.30927125    -0.11400
C374        C  0.25600149  0.56230038  0.33729874     0.15200
C375        C  0.25517162  0.56975774  0.37342903     0.02100
C376        C  0.24153402  0.57329871  0.37908825    -0.15700
C377        C  0.22642863  0.56720092  0.35209891    -0.10600
C378        C  0.22674152  0.55850369  0.31588158     0.08800
C379        C  0.27499387  0.56737225  0.32468350     0.09800
S380        S  0.27263605  0.57642915  0.41161821    -0.24900
H381        H  0.24260082  0.58096685  0.40552866     0.20100
S382        S  0.21127457  0.55303628  0.27410827    -0.30600
H383        H  0.24315340  0.55172342  0.28070062     0.10400
C384        C  0.28069615  0.55518035  0.32980882     0.03600
C385        C  0.30079987  0.56389251  0.33219837    -0.12900
C386        C  0.31472043  0.58452084  0.33387475    -0.08600
C387        C  0.30864018  0.59509315  0.31463014     0.07000
C388        C  0.28890075  0.58671030  0.31332086    -0.13600
S389        S  0.26254131  0.52916420  0.33686149    -0.30600
H390        H  0.30535596  0.55472527  0.33774559     0.11300
S391        S  0.32409695  0.61767080  0.28678180    -0.27700
H392        H  0.28424594  0.59557623  0.30511971     0.08500
H393        H  0.21472500  0.54101175  0.25359998     0.26900
H394        H  0.27567906  0.52452954  0.33949721     0.21700
H395        H  0.30948041  0.61660014  0.26558945     0.27100
H396        H  0.26485439  0.58188192  0.44042488     0.15900
C397        C  0.20366286  0.59368003  0.53517943    -0.11400
C398        C  0.19222568  0.57388480  0.52438253     0.15200
C399        C  0.18392465  0.55956502  0.55432216     0.02100
C400        C  0.18981576  0.56531238  0.59334313    -0.15700
C401        C  0.20402280  0.58523708  0.60389665    -0.10600
C402        C  0.20841603  0.59953104  0.57458172     0.08800
C403        C  0.19231384  0.56906982  0.48227218     0.09800
S404        S  0.16637852  0.53371538  0.54432324    -0.24900
H405        H  0.18427880  0.55392046  0.61531503     0.20100
S406        S  0.21715087  0.62446757  0.58530494    -0.30600
H407        H  0.20908137  0.60470177  0.51238477     0.10400
C408        C  0.18803574  0.57687322  0.45159234     0.03600
C409        C  0.19442105  0.57720545  0.41323637    -0.12900
C410        C  0.20474703  0.56943737  0.40373009    -0.08600
C411        C  0.20525127  0.55794293  0.43445635     0.07000
C412        C  0.20000359  0.55903545  0.47296043    -0.13600
S413        S  0.17547724  0.58748036  0.46151469    -0.30600
H414        H  0.19273717  0.58513525  0.39105604     0.11300
S415        S  0.21211206  0.54146656  0.43230349    -0.27700
H416        H  0.20264463  0.55244069  0.49670904     0.08500
H417        H  0.22401498  0.63226053  0.54724603     0.26900
H418        H  0.17317598  0.59060459  0.42197571     0.21700
H419        H  0.21020754  0.53668272  0.39253956     0.27100
H420        H  0.15983292  0.53613691  0.50861581     0.15900
C421        C  0.37103220  0.74477262  0.44382630    -0.11400
C422        C  0.35656195  0.73347064  0.47231149     0.15200
C423        C  0.33847985  0.71660899  0.46046100     0.02100
C424        C  0.33576164  0.71060257  0.42128675    -0.15700
C425        C  0.35116460  0.71955195  0.39310026    -0.10600
C426        C  0.36858721  0.73835609  0.40447306     0.08800
C427        C  0.36059255  0.73793521  0.51489275     0.09800
S428        S  0.31873676  0.70197122  0.49547622    -0.24900
H429        H  0.32114408  0.69859964  0.41346031     0.20100
S430        S  0.38902528  0.75487585  0.37232231    -0.30600
H431        H  0.38473582  0.75824294  0.45276255     0.10400
C432        C  0.37071055  0.73245969  0.53549858     0.03600
C433        C  0.36746842  0.72885713  0.57594893    -0.12900
C434        C  0.35345508  0.72957373  0.59657547    -0.08600
C435        C  0.34786282  0.74038859  0.57730846     0.07000
C436        C  0.35067467  0.74350263  0.53634888    -0.13600
S437        S  0.38664602  0.72856262  0.51014426    -0.30600
H438        H  0.37535527  0.72449170  0.59078975     0.11300
S439        S  0.33573432  0.74898521  0.60255089    -0.27700
H440        H  0.34385937  0.74887412  0.52048459     0.08500
H441        H  0.38941363  0.74059662  0.35303861     0.26900
H442        H  0.39196536  0.72279744  0.54302660     0.21700
H443        H  0.33713428  0.76085469  0.57189357     0.27100
H444        H  0.30668707  0.68548206  0.47121357     0.15900
C445        C  0.29619668  0.67703209  0.68103430    -0.11400
C446        C  0.28415868  0.67201867  0.64866908     0.15200
C447        C  0.29129803  0.68523054  0.61684316     0.02100
C448        C  0.31100308  0.70145110  0.61554221    -0.15700
C449        C  0.32420793  0.70609257  0.64653330    -0.10600
C450        C  0.31563496  0.69383322  0.68121880     0.08800
C451        C  0.26533730  0.65188089  0.64744965     0.09800
S452        S  0.27629531  0.68157280  0.57556860    -0.24900
H453        H  0.31579547  0.70921661  0.58807411     0.20100
S454        S  0.32797185  0.69688787  0.72682263    -0.30600
H455        H  0.29054767  0.66716334  0.70614202     0.10400
C456        C  0.26257485  0.63775771  0.62099040     0.03600
C457        C  0.24573761  0.61840498  0.62371451    -0.12900
C458        C  0.23025573  0.61214534  0.65088520    -0.08600
C459        C  0.23331417  0.62700062  0.67765484     0.07000
C460        C  0.25075964  0.64629410  0.67533126    -0.13600
S461        S  0.28061530  0.64408488  0.58366777    -0.30600
H462        H  0.24430493  0.60795742  0.60295323     0.11300
S463        S  0.21694628  0.62462584  0.71528639    -0.27700
H464        H  0.25310601  0.65731087  0.69583781     0.08500
H465        H  0.34230071  0.71707695  0.72579133     0.26900
H466        H  0.26825913  0.62776200  0.55920313     0.21700
H467        H  0.20876564  0.60579551  0.72913970     0.27100
H468        H  0.25835770  0.66947953  0.59551758     0.15900
C469        C  0.34882920  0.57962812  0.74415771    -0.11400
C470        C  0.35673792  0.57196884  0.72213493     0.15200
C471        C  0.35788416  0.57424002  0.68102004     0.02100
C472        C  0.35131068  0.58397146  0.66305053    -0.15700
C473        C  0.34124113  0.59000327  0.68375553    -0.10600
C474        C  0.34145667  0.58886289  0.72595867     0.08800
C475        C  0.36344705  0.56140846  0.74225712     0.09800
S476        S  0.36731458  0.56467943  0.64919919    -0.24900
H477        H  0.35433956  0.58658016  0.63196133     0.20100
S478        S  0.33259193  0.59895318  0.75799410    -0.30600
H479        H  0.34847662  0.57833204  0.77593043     0.10400
C480        C  0.38329669  0.56911630  0.74394081     0.03600
C481        C  0.38860723  0.55759825  0.75946378    -0.12900
C482        C  0.37450750  0.53843487  0.77351806    -0.08600
C483        C  0.35459989  0.53076705  0.77127432     0.07000
C484        C  0.34940713  0.54239302  0.75654069    -0.13600
S485        S  0.40188911  0.59377912  0.72691942    -0.30600
H486        H  0.40382924  0.56366714  0.76133430     0.11300
S487        S  0.33487282  0.50574419  0.78377267    -0.27700
H488        H  0.33413626  0.53619185  0.75445516     0.08500
H489        H  0.33415116  0.59187437  0.79396918     0.26900
H490        H  0.41784010  0.59345999  0.73328153     0.21700
H491        H  0.34422774  0.49781831  0.76961296     0.27100
H492        H  0.36001274  0.54763912  0.67142652     0.15900
C493        C  0.31953182  0.58275219  0.46758814    -0.11400
C494        C  0.33749594  0.59608525  0.48558876     0.15200
C495        C  0.35440164  0.60573349  0.46200193     0.02100
C496        C  0.35267576  0.60369701  0.42094288    -0.15700
C497        C  0.33439853  0.59133172  0.40147709    -0.10600
C498        C  0.31792523  0.57877378  0.42703459     0.08800
C499        C  0.33784814  0.59775378  0.52940173     0.09800
S500        S  0.37861328  0.62049777  0.48224953    -0.24900
H501        H  0.36596849  0.61206861  0.40358222     0.20100
S502        S  0.29715215  0.55433882  0.41494145    -0.30600
H503        H  0.30676443  0.57409812  0.48635817     0.10400
C504        C  0.34490173  0.61543361  0.54876081     0.03600
C505        C  0.34394760  0.61576470  0.59009844    -0.12900
C506        C  0.33541890  0.59862278  0.61387127    -0.08600
C507        C  0.32673150  0.58054514  0.59271449     0.07000
C508        C  0.32894759  0.58060929  0.55173902    -0.13600
S509        S  0.35321591  0.63723706  0.52075281    -0.30600
H510        H  0.34822642  0.62935705  0.60282758     0.11300
S511        S  0.31170425  0.55673635  0.61617862    -0.27700
H512        H  0.32280690  0.56690127  0.53641147     0.08500
H513        H  0.28465307  0.55172068  0.44556399     0.26900
H514        H  0.35997979  0.65029899  0.55277039     0.21700
H515        H  0.31149581  0.54558973  0.58522667     0.27100
H516        H  0.37363022  0.61029058  0.51816816     0.15900
C517        C  0.34931211  0.67648805  0.63385316    -0.11400
C518        C  0.35929044  0.67854702  0.66797075     0.15200
C519        C  0.36789458  0.69579031  0.69051374     0.02100
C520        C  0.36524123  0.70998756  0.67967355    -0.15700
C521        C  0.35335870  0.70714191  0.64738987    -0.10600
C522        C  0.34604675  0.69011135  0.62335341     0.08800
C523        C  0.35651623  0.66046582  0.68178485     0.09800
S524        S  0.38100782  0.69977178  0.73518123    -0.24900
H525        H  0.37129313  0.72246446  0.69896363     0.20100
S526        S  0.33163369  0.68436064  0.57951719    -0.30600
H527        H  0.34266160  0.66313152  0.61678565     0.10400
C528        C  0.33860168  0.64544436  0.69887830     0.03600
C529        C  0.33221407  0.62603383  0.69648101    -0.12900
C530        C  0.34299092  0.62078776  0.67605107    -0.08600
C531        C  0.36294821  0.63656889  0.66839635     0.07000
C532        C  0.36906966  0.65608865  0.66890163    -0.13600
S533        S  0.32275544  0.65072055  0.71960433    -0.30600
H534        H  0.31800296  0.61483691  0.70856523     0.11300
S535        S  0.38033091  0.63278032  0.65155320    -0.27700
H536        H  0.38323360  0.66772871  0.65695638     0.08500
H537        H  0.33468024  0.67135697  0.56230292     0.26900
H538        H  0.30711151  0.63132950  0.72956983     0.21700
H539        H  0.37922559  0.62359503  0.68692438     0.27100
H540        H  0.38585349  0.68710741  0.72596269     0.15900
C541        C  0.27516279  0.56610281  0.68485707    -0.11400
C542        C  0.27008161  0.57569544  0.66065771     0.15200
C543        C  0.28449842  0.59120050  0.63694304     0.02100
C544        C  0.30345197  0.59725249  0.63878824    -0.15700
C545        C  0.30954360  0.58819103  0.66271523    -0.10600
C546        C  0.29435373  0.57155109  0.68557183     0.08800
C547        C  0.25051664  0.57141585  0.66271268     0.09800
S548        S  0.27943907  0.60481537  0.60604343    -0.24900
H549        H  0.31410063  0.61036664  0.62246100     0.20100
S550        S  0.29687957  0.55635203  0.71758736    -0.30600
H551        H  0.26397418  0.55415810  0.70339096     0.10400
C552        C  0.23867489  0.56519344  0.62922792     0.03600
C553        C  0.22561486  0.56986077  0.62538075    -0.12900
C554        C  0.22269530  0.57949886  0.65570724    -0.08600
C555        C  0.23264909  0.58258073  0.69200714     0.07000
C556        C  0.24652904  0.57890999  0.69454618    -0.13600
S557        S  0.24207521  0.55354155  0.58897464    -0.30600
H558        H  0.21938273  0.56745276  0.59671228     0.11300
S559        S  0.22912160  0.59234736  0.73538007    -0.27700
H560        H  0.25555589  0.58348090  0.72048282     0.08500
H561        H  0.30946104  0.55505907  0.69420577     0.26900
H562        H  0.22597499  0.54860505  0.56666292     0.21700
H563        H  0.23807008  0.58764763  0.76242643     0.27100
H564        H  0.29651812  0.61453517  0.58293861     0.15900
C565        C  0.53286319  0.39298492  0.30768383    -0.11400
C566        C  0.54183945  0.38756560  0.28213864     0.15200
C567        C  0.54367180  0.39242727  0.24182133     0.02100
C568        C  0.53667452  0.40254714  0.22808457    -0.15700
C569        C  0.52848815  0.40887928  0.25369512    -0.10600
C570        C  0.52658224  0.40389911  0.29421070     0.08800
C571        C  0.54914827  0.37682767  0.29790875     0.09800
S572        S  0.55534409  0.38666925  0.20642835    -0.24900
H573        H  0.53807417  0.40585552  0.19690063     0.20100
S574        S  0.51757735  0.41199693  0.33082741    -0.30600
H575        H  0.53133290  0.38923168  0.33867643     0.10400
C576        C  0.56503625  0.38577303  0.32353980     0.03600
C577        C  0.57211702  0.37544898  0.33560984    -0.12900
C578        C  0.56381639  0.35592219  0.32342902    -0.08600
C579        C  0.54737275  0.34697204  0.29737192     0.07000
C580        C  0.54053141  0.35762425  0.28541641    -0.13600
S581        S  0.57684793  0.41068855  0.34012277    -0.30600
H582        H  0.58454248  0.38285869  0.35484881     0.11300
S583        S  0.53388295  0.32225833  0.27808105    -0.27700
H584        H  0.52810872  0.35090198  0.26606500     0.08500
H585        H  0.52801164  0.43120976  0.31580421     0.26900
H586        H  0.58856846  0.41078611  0.36896899     0.21700
H587        H  0.52503623  0.32450234  0.24614310     0.27100
H588        H  0.56934599  0.38919002  0.23241630     0.15900
C589        C  0.54431843  0.25895519  0.37454174    -0.11400
C590        C  0.54391993  0.26416307  0.33574314     0.15200
C591        C  0.54358659  0.25264415  0.30499733     0.02100
C592        C  0.54768513  0.23930969  0.31366344    -0.15700
C593        C  0.55122141  0.23650140  0.35290422    -0.10600
C594        C  0.54511877  0.24349196  0.38294732     0.08800
C595        C  0.54605237  0.28276371  0.32948094     0.09800
S596        S  0.53883043  0.25474198  0.25439514    -0.24900
H597        H  0.55005693  0.23268753  0.28935867     0.20100
S598        S  0.53374010  0.23058155  0.42854573    -0.30600
H599        H  0.54376807  0.26685383  0.39884778     0.10400
C600        C  0.53660627  0.28808493  0.35398083     0.03600
C601        C  0.54424046  0.30792240  0.35746815    -0.12900
C602        C  0.55999395  0.32293777  0.33389424    -0.08600
C603        C  0.56560143  0.31595821  0.30209268     0.07000
C604        C  0.55998328  0.29672805  0.30276017    -0.13600
S605        S  0.51456732  0.26955051  0.38056892    -0.30600
H606        H  0.53705817  0.31091564  0.37860844     0.11300
S607        S  0.57906019  0.33060362  0.25907384    -0.27700
H608        H  0.56683899  0.29269149  0.28260672     0.08500
H609        H  0.52889478  0.24262400  0.44314667     0.26900
H610        H  0.51119096  0.28215644  0.39855873     0.21700
H611        H  0.58080095  0.31709159  0.23977407     0.27100
H612        H  0.52838676  0.26219812  0.26315128     0.15900
C613        C  0.65795434  0.30799558  0.31692723    -0.11400
C614        C  0.64569013  0.29857344  0.34956257     0.15200
C615        C  0.65216804  0.30778728  0.38651557     0.02100
C616        C  0.66937849  0.32697114  0.38901166    -0.15700
C617        C  0.67961150  0.33852922  0.35502247    -0.10600
C618        C  0.67530470  0.32729630  0.31950447     0.08800
C619        C  0.62575879  0.27998888  0.34400455     0.09800
S620        S  0.63884583  0.29616531  0.43167876    -0.24900
H621        H  0.67426595  0.33254714  0.41833526     0.20100
S622        S  0.69163829  0.33630425  0.27721466    -0.30600
H623        H  0.65362249  0.30027855  0.28904778     0.10400
C624        C  0.61092736  0.28060155  0.32966347     0.03600
C625        C  0.59156024  0.26393492  0.33218236    -0.12900
C626        C  0.58588999  0.24565821  0.34764687    -0.08600
C627        C  0.60159798  0.24482123  0.35762500     0.07000
C628        C  0.62106719  0.26199006  0.35656395    -0.13600
S629        S  0.61650561  0.30323337  0.31052505    -0.30600
H630        H  0.58121208  0.26633888  0.32400124     0.11300
S631        S  0.59745457  0.22248000  0.37436866    -0.27700
H632        H  0.63270848  0.26162323  0.36698170     0.08500
H633        H  0.68161009  0.31869089  0.25563495     0.26900
H634        H  0.59735095  0.29677664  0.30426159     0.21700
H635        H  0.61697858  0.22936469  0.37426868     0.27100
H636        H  0.62018758  0.28652108  0.41556852     0.15900
C637        C  0.66693033  0.38509347  0.34598626    -0.11400
C638        C  0.65229999  0.37156914  0.32006239     0.15200
C639        C  0.65584085  0.36079558  0.29529239     0.02100
C640        C  0.67149168  0.36032653  0.30331758    -0.15700
C641        C  0.68384908  0.37023819  0.33603559    -0.10600
C642        C  0.68345221  0.38564500  0.35176398     0.08800
C643        C  0.63239359  0.36596751  0.32512651     0.09800
S644        S  0.64006421  0.34620742  0.25490899    -0.24900
H645        H  0.67308680  0.35136933  0.28437186     0.20100
S646        S  0.70413011  0.40690658  0.37616013    -0.30600
H647        H  0.66507311  0.39474407  0.36258452     0.10400
C648        C  0.61926511  0.35055054  0.35071338     0.03600
C649        C  0.60036262  0.34484890  0.35465280    -0.12900
C650        C  0.59360555  0.35424594  0.33424812    -0.08600
C651        C  0.60722537  0.36983256  0.30753466     0.07000
C652        C  0.62637064  0.37557676  0.30428985    -0.13600
S653        S  0.62682850  0.33855856  0.38004549    -0.30600
H654        H  0.59065806  0.33310049  0.37511830     0.11300
S655        S  0.60221216  0.38295576  0.27497603    -0.27700
H656        H  0.63660999  0.38735684  0.28431654     0.08500
H657        H  0.69555860  0.41630679  0.38491126     0.26900
H658        H  0.60856222  0.32406071  0.39692987     0.21700
H659        H  0.58497630  0.36631670  0.25948312     0.27100
H660        H  0.63301460  0.35717060  0.24864090     0.15900
C661        C  0.53769354  0.37464139  0.67405445    -0.11400
C662        C  0.53988189  0.37637866  0.71479628     0.15200
C663        C  0.54859007  0.36875632  0.73343361     0.02100
C664        C  0.55654764  0.36137432  0.71054233    -0.15700
C665        C  0.55630077  0.36122233  0.66865644    -0.10600
C666        C  0.54473591  0.36647444  0.65084760     0.08800
C667        C  0.53375850  0.38717826  0.73613869     0.09800
S668        S  0.55066383  0.36867146  0.78626883    -0.24900
H669        H  0.56394282  0.35652061  0.72593560     0.20100
S670        S  0.53674199  0.36328985  0.60025932    -0.30600
H671        H  0.53014963  0.37970709  0.66003172     0.10400
C672        C  0.54760179  0.40660845  0.74914512     0.03600
C673        C  0.54133080  0.41689892  0.76661399    -0.12900
C674        C  0.52144634  0.40838405  0.77089604    -0.08600
C675        C  0.50754582  0.38887723  0.75802606     0.07000
C676        C  0.51384668  0.37853394  0.74053643    -0.13600
S677        S  0.57330417  0.41864108  0.74206022    -0.30600
H678        H  0.55199568  0.43183132  0.77653421     0.11300
S679        S  0.48186382  0.37674981  0.76565858    -0.27700
H680        H  0.50328484  0.36364700  0.73025974     0.08500
H681        H  0.53028110  0.34398180  0.59520218     0.26900
H682        H  0.57995597  0.43646754  0.76043143     0.21700
H683        H  0.47533712  0.35838411  0.75030124     0.27100
H684        H  0.53439309  0.36817581  0.79532213     0.15900
C685        C  0.57308060  0.36803076  0.53551284    -0.11400
C686        C  0.56421931  0.34995973  0.51673283     0.15200
C687        C  0.55594805  0.33299765  0.53975792     0.02100
C688        C  0.55619254  0.33437037  0.58090257    -0.15700
C689        C  0.56464898  0.35246303  0.60111182    -0.10600
C690        C  0.57383610  0.36968009  0.57672112     0.08800
C691        C  0.56586867  0.34982516  0.47319941     0.09800
S692        S  0.54593046  0.30922080  0.51859361    -0.24900
H693        H  0.55090652  0.32103430  0.59621877     0.20100
S694        S  0.58679597  0.39421586  0.59671367    -0.30600
H695        H  0.57999342  0.38108516  0.51740914     0.10400
C696        C  0.54992646  0.34210700  0.44805959     0.03600
C697        C  0.55275111  0.34259568  0.40705036    -0.12900
C698        C  0.57091861  0.34928847  0.39006991    -0.08600
C699        C  0.58736347  0.36119362  0.41594816     0.07000
C700        C  0.58441471  0.35964012  0.45678524    -0.13600
S701        S  0.52613220  0.33210582  0.46806275    -0.30600
H702        H  0.54056520  0.33751978  0.38795130     0.11300
S703        S  0.61155284  0.38194384  0.40011304    -0.27700
H704        H  0.59681251  0.36716917  0.47634337     0.08500
H705        H  0.58868536  0.40403124  0.56171113     0.26900
H706        H  0.51600212  0.32488665  0.43226355     0.21700
H707        H  0.61865368  0.39139630  0.43675203     0.27100
H708        H  0.55845265  0.31608450  0.48568580     0.15900
C709        C  0.57554987  0.22300747  0.55740835    -0.11400
C710        C  0.56327685  0.22454170  0.53375929     0.15200
C711        C  0.54988115  0.22654348  0.55217212     0.02100
C712        C  0.55153019  0.23067551  0.59244777    -0.15700
C713        C  0.56682876  0.23364957  0.61533634    -0.10600
C714        C  0.57648042  0.22617527  0.59843352     0.08800
C715        C  0.56536555  0.22530891  0.49011277     0.09800
S716        S  0.53080854  0.22424226  0.52458999    -0.24900
H717        H  0.54122367  0.23250971  0.60542805     0.20100
S718        S  0.59092779  0.22160489  0.62715450    -0.30600
H719        H  0.58481079  0.21990636  0.54351452     0.10400
C720        C  0.57537256  0.24328679  0.46999601     0.03600
C721        C  0.57515141  0.24348194  0.42880645    -0.12900
C722        C  0.56506991  0.22603715  0.40578441    -0.08600
C723        C  0.55767213  0.20814746  0.42686815     0.07000
C724        C  0.55729002  0.20808159  0.46849257    -0.13600
S725        S  0.58815456  0.26616647  0.49670647    -0.30600
H726        H  0.58198703  0.25749736  0.41435312     0.11300
S727        S  0.55114715  0.18571709  0.40426371    -0.27700
H728        H  0.55099141  0.19453379  0.48457320     0.08500
H729        H  0.59359418  0.21173653  0.59772083     0.26900
H730        H  0.59292114  0.27854656  0.46421951     0.21700
H731        H  0.53910279  0.17290150  0.43494223     0.27100
H732        H  0.52173512  0.22666570  0.55616871     0.15900
C733        C  0.56069951  0.28149330  0.64101496    -0.11400
C734        C  0.54998931  0.27917192  0.67441650     0.15200
C735        C  0.54310157  0.26310452  0.69958280     0.02100
C736        C  0.54827024  0.25051055  0.69202451    -0.15700
C737        C  0.56126509  0.25414314  0.66093886    -0.10600
C738        C  0.56671219  0.26973416  0.63418336     0.08800
C739        C  0.55028484  0.29629322  0.68454902     0.09800
S740        S  0.52927626  0.25894621  0.74372633    -0.24900
H741        H  0.54351418  0.23904788  0.71333096     0.20100
S742        S  0.58230100  0.27620985  0.59166523    -0.30600
H743        H  0.56591434  0.29391985  0.62183434     0.10400
C744        C  0.56762118  0.31336355  0.69864876     0.03600
C745        C  0.57174616  0.33162369  0.69092751    -0.12900
C746        C  0.55930872  0.33349571  0.66738931    -0.08600
C747        C  0.53977082  0.31603721  0.66417494     0.07000
C748        C  0.53589519  0.29759870  0.67009048    -0.13600
S749        S  0.58552845  0.31197141  0.72238063    -0.30600
H750        H  0.58538058  0.34442783  0.70166644     0.11300
S751        S  0.52004084  0.31647247  0.64889307    -0.27700
H752        H  0.52212123  0.28428854  0.66099177     0.08500
H753        H  0.57729531  0.28689039  0.57114000     0.26900
H754        H  0.59955172  0.33221898  0.72878978     0.21700
H755        H  0.50493154  0.29660442  0.65679492     0.27100
H756        H  0.52277453  0.26993203  0.73245784     0.15900
C757        C  0.71343501  0.39704324  0.54547906    -0.11400
C758        C  0.70310255  0.37868741  0.52695863     0.15200
C759        C  0.69456815  0.36178604  0.55012394     0.02100
C760        C  0.69365521  0.36323096  0.59073942    -0.15700
C761        C  0.70027762  0.38116642  0.60980432    -0.10600
C762        C  0.71300789  0.39854224  0.58678629     0.08800
C763        C  0.70139660  0.37727073  0.48361886     0.09800
S764        S  0.68413672  0.33778295  0.52959492    -0.24900
H765        H  0.68742175  0.34980425  0.60705909     0.20100
S766        S  0.72772564  0.42277500  0.60847173    -0.30600
H767        H  0.72133438  0.41015500  0.52740016     0.10400
C768        C  0.68339093  0.36828247  0.46499177     0.03600
C769        C  0.68200197  0.36460801  0.42444055    -0.12900
C770        C  0.69823009  0.36961778  0.40120230    -0.08600
C771        C  0.71697500  0.38253072  0.41983630     0.07000
C772        C  0.71800027  0.38477199  0.46088366    -0.13600
S773        S  0.66211409  0.36128220  0.49297689    -0.30600
H774        H  0.66785460  0.35683681  0.41082048     0.11300
S775        S  0.73959295  0.40004544  0.39383740    -0.27700
H776        H  0.73193819  0.39302470  0.47556564     0.08500
H777        H  0.73788742  0.43323426  0.57402538     0.26900
H778        H  0.64966787  0.35568073  0.46063820     0.21700
H779        H  0.75206843  0.40917131  0.42629606     0.27100
H780        H  0.69630930  0.34438277  0.49614037     0.15900
C781        C  0.66330528  0.32636406  0.69696881    -0.11400
C782        C  0.64706266  0.31796704  0.67263343     0.15200
C783        C  0.64604492  0.32995718  0.64660965     0.02100
C784        C  0.66121515  0.34985156  0.64460077    -0.15700
C785        C  0.67862027  0.35895900  0.66681452    -0.10600
C786        C  0.67905575  0.34655299  0.69497894     0.08800
C787        C  0.63072440  0.29672246  0.67440765     0.09800
S788        S  0.62544067  0.32004960  0.61475107    -0.24900
H789        H  0.65991845  0.35831837  0.62307614     0.20100
S790        S  0.69796874  0.35370364  0.73009403    -0.30600
H791        H  0.66372420  0.31698059  0.71769718     0.10400
C792        C  0.62644000  0.28455027  0.64189679     0.03600
C793        C  0.60762504  0.26709606  0.63761673    -0.12900
C794        C  0.59285126  0.26030575  0.66659022    -0.08600
C795        C  0.59855917  0.27182446  0.70208495     0.07000
C796        C  0.61712118  0.28989918  0.70485769    -0.13600
S797        S  0.64442710  0.29238713  0.60342577    -0.30600
H798        H  0.60450239  0.26008232  0.60951972     0.11300
S799        S  0.58281960  0.26396881  0.74497438    -0.27700
H800        H  0.62083033  0.29930370  0.73014837     0.08500
H801        H  0.70236978  0.37171582  0.74139006     0.26900
H802        H  0.63384688  0.27478859  0.58174384     0.21700
H803        H  0.59414926  0.28149484  0.76671189     0.27100
H804        H  0.63664586  0.33202286  0.58240092     0.15900
C805        C  0.65669304  0.38786301  0.69426104    -0.11400
C806        C  0.65201546  0.39309391  0.65987658     0.15200
C807        C  0.66536385  0.40083642  0.62836688     0.02100
C808        C  0.68037998  0.39884554  0.62821495    -0.15700
C809        C  0.68386887  0.39074846  0.66054594    -0.10600
C810        C  0.67269796  0.38728209  0.69562282     0.08800
C811        C  0.63144205  0.38569985  0.65435268     0.09800
S812        S  0.66242384  0.41111112  0.58515859    -0.24900
H813        H  0.68792390  0.40236838  0.60068142     0.20100
S814        S  0.67683142  0.37988909  0.74170484    -0.30600
H815        H  0.64674580  0.38251667  0.71912823     0.10400
C816        C  0.61926883  0.36987227  0.62898078     0.03600
C817        C  0.59937537  0.36072139  0.62926909    -0.12900
C818        C  0.59041203  0.36756773  0.65141188    -0.08600
C819        C  0.60342114  0.38487991  0.67489697     0.07000
C820        C  0.62335791  0.39293557  0.67709263    -0.13600
S821        S  0.62869547  0.36051203  0.59656662    -0.30600
H822        H  0.59043496  0.34741648  0.61222181     0.11300
S823        S  0.59726136  0.39824628  0.70369608    -0.27700
H824        H  0.63285549  0.40529196  0.69642514     0.08500
H825        H  0.66609779  0.38377118  0.76575207     0.26900
H826        H  0.61120290  0.34592885  0.57769186     0.21700
H827        H  0.58556181  0.39840264  0.67559091     0.27100
H828        H  0.65046502  0.41517776  0.60342873     0.15900
C829        C  0.13169314  0.55188382  0.28759211    -0.11400
C830        C  0.14328099  0.54682234  0.27185312     0.15200
C831        C  0.13611186  0.53347975  0.24013840     0.02100
C832        C  0.11747742  0.52517692  0.22563981    -0.15700
C833        C  0.10572317  0.53013517  0.24126692    -0.10600
C834        C  0.11324269  0.54403518  0.27225573     0.08800
C835        C  0.16191687  0.55421965  0.29142855     0.09800
S836        S  0.14995748  0.52631978  0.21704388    -0.24900
H837        H  0.11209334  0.51457840  0.20196416     0.20100
S838        S  0.10059682  0.55308102  0.29252174    -0.30600
H839        H  0.13711944  0.56210100  0.31202361     0.10400
C840        C  0.17800605  0.57411060  0.29087005     0.03600
C841        C  0.19479564  0.58038912  0.31211844    -0.12900
C842        C  0.19652625  0.56714271  0.33336485    -0.08600
C843        C  0.17986513  0.54689028  0.33289302     0.07000
C844        C  0.16312089  0.54090005  0.31204455    -0.13600
S845        S  0.17714250  0.59160136  0.26305636    -0.30600
H846        H  0.20604237  0.59597552  0.31335400     0.11300
S847        S  0.17912944  0.52787688  0.35788580    -0.27700
H848        H  0.15061223  0.52558220  0.31190984     0.08500
H849        H  0.09326989  0.55369888  0.25611194     0.26900
H850        H  0.19663518  0.60788430  0.26879374     0.21700
H851        H  0.15897807  0.51291361  0.35570869     0.27100
H852        H  0.16842511  0.54394253  0.22452984     0.15900
C853        C  0.16442109  0.55693640  0.71102362    -0.11400
C854        C  0.15618163  0.56670802  0.70507455     0.15200
C855        C  0.16662327  0.58414293  0.68294393     0.02100
C856        C  0.18468981  0.59102703  0.66647538    -0.15700
C857        C  0.19375273  0.58176173  0.67255560    -0.10600
C858        C  0.18255750  0.56364938  0.69456094     0.08800
C859        C  0.13613226  0.55743351  0.72049286     0.09800
S860        S  0.15750041  0.59806701  0.67350893    -0.24900
H861        H  0.19189994  0.60406256  0.64842196     0.20100
S862        S  0.18835026  0.54648300  0.69778387    -0.30600
H863        H  0.15584612  0.54313451  0.72689971     0.10400
C864        C  0.11952745  0.54553445  0.69660826     0.03600
C865        C  0.10078169  0.53523394  0.71370215    -0.12900
C866        C  0.09830505  0.53664861  0.75427467    -0.08600
C867        C  0.11507168  0.54971073  0.77736636     0.07000
C868        C  0.13366219  0.55953262  0.76050326    -0.13600
S869        S  0.12228251  0.54276699  0.64476939    -0.30600
H870        H  0.08806184  0.52540097  0.69579887     0.11300
S871        S  0.11384598  0.55507321  0.82827612    -0.27700
H872        H  0.14637534  0.56896386  0.77875696     0.08500
H873        H  0.17628899  0.53552556  0.73016739     0.26900
H874        H  0.10232586  0.53061196  0.63579455     0.21700
H875        H  0.09645579  0.55307439  0.82434548     0.27100
H876        H  0.14585521  0.59225106  0.70759087     0.15900
C877        C  0.77264068  0.38599083  0.25315488    -0.11400
C878        C  0.77079190  0.39255324  0.28953665     0.15200
C879        C  0.78771996  0.40626773  0.31136315     0.02100
C880        C  0.80609315  0.41353982  0.29597005    -0.15700
C881        C  0.80798881  0.40778144  0.25857412    -0.10600
C882        C  0.79103125  0.39345531  0.23741159     0.08800
C883        C  0.75096640  0.38431542  0.30448028     0.09800
S884        S  0.78674273  0.41573229  0.35798626    -0.24900
H885        H  0.81901235  0.42462019  0.31223989     0.20100
S886        S  0.79269086  0.38417519  0.19081469    -0.30600
H887        H  0.75959853  0.37508672  0.23704657     0.10400
C888        C  0.74054125  0.39105791  0.29076390     0.03600
C889        C  0.72203188  0.38322743  0.30658444    -0.12900
C890        C  0.71358695  0.36881367  0.33676883    -0.08600
C891        C  0.72412038  0.36156548  0.34910361     0.07000
C892        C  0.74249617  0.36940489  0.33270528    -0.13600
S893        S  0.75127744  0.41036191  0.25426623    -0.30600
H894        H  0.71462541  0.38906122  0.29618206     0.11300
S895        S  0.71554527  0.34372737  0.38835827    -0.27700
H896        H  0.75070622  0.36435161  0.34280199     0.08500
H897        H  0.77261155  0.37146389  0.18310961     0.26900
H898        H  0.73615575  0.41230340  0.25355679     0.21700
H899        H  0.72920074  0.33988430  0.38299817     0.27100
H900        H  0.77384426  0.41942024  0.34422625     0.15900
C901        C  0.77072026  0.40746117  0.76538760    -0.11400
C902        C  0.77101028  0.41581151  0.72961512     0.15200
C903        C  0.78914911  0.43097991  0.71262128     0.02100
C904        C  0.80646532  0.43739185  0.73184242    -0.15700
C905        C  0.80618430  0.42906037  0.76774289    -0.10600
C906        C  0.78799091  0.41374503  0.78437736     0.08800
C907        C  0.75210039  0.40774152  0.71042776     0.09800
S908        S  0.79134647  0.44320372  0.66724720    -0.24900
H909        H  0.82029293  0.44926121  0.71902327     0.20100
S910        S  0.78574949  0.40102235  0.82889832    -0.30600
H911        H  0.75686980  0.39565868  0.77827197     0.10400
C912        C  0.74345958  0.39156246  0.68514137     0.03600
C913        C  0.72518313  0.38366182  0.66906290    -0.12900
C914        C  0.71476465  0.39143515  0.67688093    -0.08600
C915        C  0.72458234  0.40897023  0.70056976     0.07000
C916        C  0.74267366  0.41627260  0.71777073    -0.13600
S917        S  0.75578716  0.38089985  0.67319121    -0.30600
H918        H  0.71863460  0.37076761  0.65072287     0.11300
S919        S  0.71630914  0.42398011  0.70709856    -0.27700
H920        H  0.74995764  0.42914865  0.73641686     0.08500
H921        H  0.80259190  0.40220695  0.82220886     0.26900
H922        H  0.74324423  0.36858040  0.64275950     0.21700
H923        H  0.73082610  0.43806629  0.73296286     0.27100
H924        H  0.77305557  0.42849621  0.65148461     0.15900
C925        C  0.52640881  0.17636463  0.31514461    -0.11400
C926        C  0.53818523  0.17434032  0.29051132     0.15200
C927        C  0.55773086  0.19070137  0.28481702     0.02100
C928        C  0.56523602  0.20818585  0.30552519    -0.15700
C929        C  0.55423511  0.20974097  0.33456224    -0.10600
C930        C  0.53393306  0.19352831  0.33709648     0.08800
C931        C  0.52934531  0.15492031  0.27131500     0.09800
S932        S  0.57406942  0.19017647  0.25214662    -0.24900
H933        H  0.58011946  0.22037361  0.29910938     0.20100
S934        S  0.51712524  0.19330008  0.36976321    -0.30600
H935        H  0.51116463  0.16404629  0.31785461     0.10400
C936        C  0.52256359  0.13799956  0.29387191     0.03600
C937        C  0.51293896  0.11964518  0.27525854    -0.12900
C938        C  0.50996934  0.11769529  0.23436122    -0.08600
C939        C  0.51766379  0.13485051  0.21149121     0.07000
C940        C  0.52695715  0.15315547  0.23030402    -0.13600
S941        S  0.52631955  0.13975749  0.34650349    -0.30600
H942        H  0.50729839  0.10664685  0.29280716     0.11300
S943        S  0.51676345  0.13393529  0.15824480    -0.27700
H944        H  0.53234816  0.16619754  0.21310441     0.08500
H945        H  0.50192608  0.17303822  0.36859738     0.26900
H946        H  0.51796822  0.11986109  0.35311564     0.21700
H947        H  0.52802584  0.15429882  0.15164354     0.27100
H948        H  0.56584708  0.17027702  0.25809407     0.15900
C949        C  0.56148617  0.20191769  0.72982763    -0.11400
C950        C  0.54164583  0.18741560  0.72375473     0.15200
C951        C  0.53125440  0.19196270  0.70101342     0.02100
C952        C  0.54124265  0.21018722  0.68214885    -0.15700
C953        C  0.56157873  0.22498812  0.68622590    -0.10600
C954        C  0.57169417  0.22049478  0.71191803     0.08800
C955        C  0.53267262  0.16755208  0.74047414     0.09800
S956        S  0.50524279  0.17510740  0.69439995    -0.24900
H957        H  0.53286266  0.21276171  0.66342271     0.20100
S958        S  0.59769738  0.23606687  0.72050254    -0.30600
H959        H  0.56932090  0.19819748  0.74738299     0.10400
C960        C  0.52603098  0.15112824  0.71629249     0.03600
C961        C  0.51822550  0.13280747  0.73376015    -0.12900
C962        C  0.51751941  0.13065946  0.77494431    -0.08600
C963        C  0.52550761  0.14753717  0.79884199     0.07000
C964        C  0.53248721  0.16554370  0.78147221    -0.13600
S965        S  0.52817574  0.15361398  0.66326104    -0.30600
H966        H  0.51244204  0.12005849  0.71526944     0.11300
S967        S  0.52864652  0.14759290  0.85134334    -0.27700
H968        H  0.53838569  0.17830735  0.80007398     0.08500
H969        H  0.59694486  0.22850004  0.75786463     0.26900
H970        H  0.52172084  0.13437903  0.65504587     0.21700
H971        H  0.53260544  0.13380348  0.85022589     0.27100
H972        H  0.50112454  0.16474719  0.72983876     0.15900
C973        C  0.38963240  0.79724067  0.28259870    -0.11400
C974        C  0.37530670  0.78101526  0.26014144     0.15200
C975        C  0.37150888  0.78411850  0.22165705     0.02100
C976        C  0.38248113  0.80325585  0.20621729    -0.15700
C977        C  0.39698839  0.81951924  0.22855980    -0.10600
C978        C  0.40063344  0.81632844  0.26715828     0.08800
C979        C  0.36588634  0.76112321  0.27704138     0.09800
S980        S  0.35326007  0.76431113  0.19052004    -0.24900
H981        H  0.37963628  0.80549459  0.17649362     0.20100
S982        S  0.42010248  0.83569003  0.29706406    -0.30600
H983        H  0.39283113  0.79489632  0.31189697     0.10400
C984        C  0.37308991  0.75042870  0.26896684     0.03600
C985        C  0.36635993  0.73352349  0.29099817    -0.12900
C986        C  0.35190854  0.72629998  0.32102396    -0.08600
C987        C  0.34329972  0.73635864  0.32557092     0.07000
C988        C  0.35075141  0.75372142  0.30433778    -0.13600
S989        S  0.39206121  0.75915221  0.23244217    -0.30600
H990        H  0.37388640  0.72719966  0.28617285     0.11300
S991        S  0.32306144  0.72792615  0.35875106    -0.27700
H992        H  0.34500289  0.76189729  0.30939621     0.08500
H993        H  0.43341688  0.84542300  0.26564731     0.26900
H994        H  0.39078956  0.74192133  0.23047667     0.21700
H995        H  0.32306438  0.74438826  0.35622172     0.27100
H996        H  0.34133983  0.75126249  0.22095064     0.15900
C997        C  0.36152078  0.76650300  0.70462114    -0.11400
C998        C  0.38157091  0.77914180  0.69718957     0.15200
C999        C  0.39008706  0.77202350  0.67528699     0.02100
C1000       C  0.37851155  0.75274135  0.66136297    -0.15700
C1001       C  0.35796450  0.73995926  0.66596541    -0.10600
C1002       C  0.34948543  0.74735467  0.68896870     0.08800
C1003       C  0.39336791  0.79934027  0.71420860     0.09800
S1004       S  0.41555736  0.78711986  0.66186939    -0.24900
H1005       H  0.38570040  0.74799413  0.64440925     0.20100
S1006       S  0.32362766  0.73425843  0.69762782    -0.30600
H1007       H  0.35515997  0.77204898  0.72195921     0.10400
C1008       C  0.39001582  0.81322160  0.70474834     0.03600
C1009       C  0.40135488  0.83190065  0.72254458    -0.12900
C1010       C  0.41635836  0.83724977  0.74883910    -0.08600
C1011       C  0.42041901  0.82366488  0.75605950     0.07000
C1012       C  0.40849257  0.80479895  0.74001505    -0.13600
S1013       S  0.37170173  0.80742251  0.66924035    -0.30600
H1014       H  0.39833004  0.84227110  0.71641375     0.11300
S1015       S  0.44138842  0.82970007  0.78289685    -0.27700
H1016       H  0.41141062  0.79438568  0.74682740     0.08500
H1017       H  0.32492500  0.74516063  0.73037088     0.26900
H1018       H  0.37495333  0.82568283  0.67037664     0.21700
H1019       H  0.45372720  0.84923783  0.76945116     0.27100
H1020       H  0.41757695  0.80469803  0.65828540     0.15900
loop_ 
_geom_bond_atom_site_label_1 
_geom_bond_atom_site_label_2 
_geom_bond_distance 
_geom_bond_site_symmetry_2 
_ccdc_geom_bond_type 
N1            N2   1.325       .  A
N1            C5   1.350       .  A
N1           Cu9   2.106       .  S
N2            C3   1.344       .  A
N2           Cu8   2.080       .  S
C3            C4   1.382       .  A
C3            H6   1.082       .  S
C4            C5   1.388       .  A
C4           C52   1.472       .  S
C5            H7   1.082       .  S
Cu8          N11   2.079       .  S
Cu9          N19   2.104       .  S
Cu10         N12   2.051       .  S
Cu10         N18   2.052       .  S
N11          N12   1.319       .  A
N11          C15   1.347       .  A
N12          C13   1.341       .  A
C13          C14   1.381       .  A
C13          H16   1.082       .  S
C14          C15   1.388       .  A
C14          C38   1.471   1_556  S
C15          H17   1.082       .  S
N18          N19   1.321       .  A
N18          C22   1.339       .  A
N19          C20   1.353       .  A
C20          C21   1.395       .  A
C20          H23   1.082       .  S
C21          C22   1.381       .  A
C21        C1010   1.490       .  S
C22          H24   1.081       .  S
N25          N26   1.323       .  A
N25          C29   1.351       .  A
N25         Cu33   2.110       .  S
N26          C27   1.344       .  A
N26         Cu32   2.068       .  S
C27          C28   1.381       .  A
C27          H30   1.082       .  S
C28          C29   1.391       .  A
C28          C76   1.475       .  S
C29          H31   1.082       .  S
Cu32         N35   2.067       .  S
Cu33         N43   2.109       .  S
Cu34         N36   2.068       .  S
Cu34         N42   2.069       .  S
N35          N36   1.321       .  A
N35          C39   1.345       .  A
N36          C37   1.343       .  A
C37          C38   1.384       .  A
C37          H40   1.082       .  S
C38          C39   1.383       .  A
C39          H41   1.082       .  S
N42          N43   1.323       .  A
N42          C46   1.345       .  A
N43          C44   1.351       .  A
C44          C45   1.391       .  A
C44          H47   1.082       .  S
C45          C46   1.381       .  A
C45         C977   1.486       .  S
C46          H48   1.082       .  S
N49          N50   1.324       .  A
N49          C53   1.353       .  A
N49         Cu57   2.108       .  S
N50          C51   1.341   1_545  A
N50         Cu56   2.062       .  S
C51          C52   1.377       .  A
C51          H54   1.082       .  S
C52          C53   1.390   1_565  A
C53          H55   1.082       .  S
Cu56         N59   2.062       .  S
Cu57         N67   2.108       .  S
Cu58         N60   2.066       .  S
Cu58         N66   2.067       .  S
N59          N60   1.319       .  A
N59          C63   1.344       .  A
N60          C61   1.345       .  A
C61          C62   1.385       .  A
C61          H64   1.082       .  S
C62          C63   1.383       .  A
C62          C86   1.472   1_556  S
C63          H65   1.082       .  S
N66          N67   1.324       .  A
N66          C70   1.342       .  A
N67          C68   1.352       .  A
C68          C69   1.392       .  A
C68          H71   1.082       .  S
C69          C70   1.382       .  A
C69         C962   1.489       .  S
C70          H72   1.081       .  S
N73          N74   1.324   1_545  A
N73          C77   1.353   1_545  A
N73         Cu81   2.115       .  S
N74          C75   1.343       .  A
N74         Cu80   2.069   1_565  S
C75          C76   1.378       .  A
C75          H78   1.082       .  S
C76          C77   1.391       .  A
C77          H79   1.082   1_565  S
Cu80         N83   2.068       .  S
Cu81         N91   2.115       .  S
Cu82         N84   2.061       .  S
Cu82         N90   2.063       .  S
N83          N84   1.319       .  A
N83          C87   1.345       .  A
N84          C85   1.344       .  A
C85          C86   1.383       .  A
C85          H88   1.082       .  S
C86          C87   1.385       .  A
C87          H89   1.082       .  S
N90          N91   1.323       .  A
N90          C94   1.343       .  A
N91          C92   1.352       .  A
C92          C93   1.394       .  A
C92          H95   1.082       .  S
C93          C94   1.382       .  A
C93         C938   1.493       .  S
C94          H96   1.081       .  S
N97          N98   1.323       .  A
N97         C101   1.354       .  A
N97        Cu105   2.113       .  S
N98          C99   1.342       .  A
N98        Cu104   2.063       .  S
C99         C100   1.378       .  A
C99         H102   1.082       .  S
C100        C101   1.392       .  A
C100        C148   1.475       .  S
C101        H103   1.082       .  S
Cu104       N107   2.062       .  S
Cu105       N115   2.113       .  S
Cu106       N108   2.071       .  S
Cu106       N114   2.072       .  S
N107        N108   1.320       .  A
N107        C111   1.344       .  A
N108        C109   1.345       .  A
C109        C110   1.386       .  A
C109        H112   1.082       .  S
C110        C111   1.382       .  A
C110        C134   1.471   1_556  S
C111        H113   1.082       .  S
N114        N115   1.325       .  A
N114        C118   1.344       .  A
N115        C116   1.352       .  A
C116        C117   1.390       .  A
C116        H119   1.082       .  S
C117        C118   1.381       .  A
C117        C905   1.487       .  S
C118        H120   1.082       .  S
N121        N122   1.325       .  A
N121        C125   1.352       .  A
N121       Cu129   2.107       .  S
N122        C123   1.342       .  A
N122       Cu128   2.075       .  S
C123        C124   1.380       .  A
C123        H126   1.082       .  S
C124        C125   1.389       .  A
C124        C172   1.472       .  S
C125        H127   1.082       .  S
Cu128       N131   2.074       .  S
Cu129       N139   2.106       .  S
Cu130       N132   2.052       .  S
Cu130       N138   2.053       .  S
N131        N132   1.319       .  A
N131        C135   1.345       .  A
N132        C133   1.343       .  A
C133        C134   1.382       .  A
C133        H136   1.082       .  S
C134        C135   1.387       .  A
C135        H137   1.082       .  S
N138        N139   1.323       .  A
N138        C142   1.338       .  A
N139        C140   1.353       .  A
C140        C141   1.392       .  A
C140        H143   1.082       .  S
C141        C142   1.377       .  A
C141        C881   1.481       .  S
C142        H144   1.082       .  S
N145        N146   1.324       .  A
N145        C149   1.353       .  A
N145       Cu153   2.117   1_655  S
N146        C147   1.343       .  A
N146       Cu152   2.071       .  S
C147        C148   1.381       .  A
C147        H150   1.082       .  S
C148        C149   1.391       .  A
C149        H151   1.082       .  S
Cu152       N155   2.070   1_655  S
Cu153       N163   2.116       .  S
Cu154       N156   2.068       .  S
Cu154       N162   2.069       .  S
N155        N156   1.320       .  A
N155        C159   1.346       .  A
N156        C157   1.344       .  A
C157        C158   1.384       .  A
C157        H160   1.082       .  S
C158        C159   1.385       .  A
C158        C182   1.472   1_556  S
C159        H161   1.082   1_455  S
N162        N163   1.323       .  A
N162        C166   1.342       .  A
N163        C164   1.355       .  A
C164        C165   1.394       .  A
C164        H167   1.082       .  S
C165        C166   1.382       .  A
C165        C866   1.493       .  S
C166        H168   1.082       .  S
N169        N170   1.324       .  A
N169        C173   1.352       .  A
N169       Cu177   2.106   1_655  S
N170        C171   1.341       .  A
N170       Cu176   2.069       .  S
C171        C172   1.379       .  A
C171        H174   1.082       .  S
C172        C173   1.390       .  A
C173        H175   1.082       .  S
Cu176       N179   2.070   1_655  S
Cu177       N187   2.105       .  S
Cu178       N180   2.061       .  S
Cu178       N186   2.061       .  S
N179        N180   1.319       .  A
N179        C183   1.346       .  A
N180        C181   1.343       .  A
C181        C182   1.383       .  A
C181        H184   1.082       .  S
C182        C183   1.386       .  A
C183        H185   1.082   1_455  S
N186        N187   1.322       .  A
N186        C190   1.340       .  A
N187        C188   1.352       .  A
C188        C189   1.395       .  A
C188        H191   1.081       .  S
C189        C190   1.382       .  A
C189        C833   1.492       .  S
C190        H192   1.082       .  S
C193        C761   1.590       .  S
C193        C785   1.587       .  S
C193        C809   1.590       .  S
C193        C914   1.571       .  S
C194        C713   1.584       .  S
C194        C737   1.585       .  S
C194        C794   1.575       .  S
C194        C953   1.572       .  S
C195        C665   1.577       .  S
C195        C689   1.582       .  S
C195        C746   1.594       .  S
C195        C818   1.594       .  S
C196        C617   1.604       .  S
C196        C641   1.595       .  S
C196        C770   1.587       .  S
C196        C890   1.554       .  S
C197        C593   1.583       .  S
C197        C626   1.598       .  S
C197        C722   1.582       .  S
C197        C929   1.575       .  S
C198        C578   1.575       .  S
C198        C602   1.596       .  S
C198        C650   1.574       .  S
C198        C698   1.597       .  S
C199        C473   1.588       .  S
C199        C506   1.597       .  S
C199        C530   1.589       .  S
C199        C545   1.592       .  S
C200        C434   1.584       .  S
C200        C449   1.582       .  S
C200        C521   1.584       .  S
C200       C1001   1.576       .  S
C201        C401   1.580       .  S
C201        C458   1.582       .  S
C201        C554   1.591       .  S
C201        C857   1.573       .  S
C202        C329   1.584       .  S
C202        C353   1.571       .  S
C202        C386   1.586       .  S
C202        C497   1.599       .  S
C203        C305   1.590       .  S
C203        C362   1.593       .  S
C203        C425   1.582       .  S
C203        C986   1.582       .  S
C204        C314   1.596       .  S
C204        C377   1.562       .  S
C204        C410   1.577       .  S
C204        C842   1.578       .  S
N205        N206   1.325       .  A
N205        C209   1.357       .  A
N205       Cu213   2.139       .  S
N206        C207   1.343       .  A
N206       Cu212   2.062       .  S
C207        C208   1.377       .  A
C207        H210   1.082       .  S
C208        C209   1.397       .  A
C208        C256   1.482       .  S
C209        H211   1.082       .  S
Cu212       N215   2.062       .  S
Cu213       N223   2.139       .  S
Cu214       N216   2.065       .  S
Cu214       N222   2.067       .  S
N215        N216   1.319       .  A
N215        C219   1.344       .  A
N216        C217   1.344       .  A
C217        C218   1.385       .  A
C217        H220   1.082       .  S
C218        C219   1.384       .  A
C218        C242   1.472   1_556  S
C219        H221   1.082       .  S
N222        N223   1.324       .  A
N222        C226   1.343       .  A
N223        C224   1.357       .  A
C224        C225   1.399       .  A
C224        H227   1.082       .  S
C225        C226   1.382       .  A
C225        C482   1.500       .  S
C226        H228   1.082       .  S
N229        N230   1.324       .  A
N229        C233   1.350       .  A
N229       Cu237   2.101       .  S
N230        C231   1.344       .  A
N230       Cu236   2.076       .  S
C231        C232   1.381       .  A
C231        H234   1.082       .  S
C232        C233   1.387       .  A
C232        C280   1.471       .  S
C233        H235   1.082       .  S
Cu236       N239   2.075       .  S
Cu237       N247   2.100       .  S
Cu238       N240   2.059       .  S
Cu238       N246   2.059       .  S
N239        N240   1.320       .  A
N239        C243   1.346       .  A
N240        C241   1.343       .  A
C241        C242   1.382       .  A
C241        H244   1.082       .  S
C242        C243   1.386       .  A
C243        H245   1.082       .  S
N246        N247   1.323       .  A
N246        C250   1.341       .  A
N247        C248   1.351       .  A
C248        C249   1.391       .  A
C248        H251   1.082       .  S
C249        C250   1.379       .  A
C249        C338   1.482       .  S
C250        H252   1.082       .  S
N253        N254   1.324       .  A
N253        C257   1.354       .  A
N253       Cu261   2.126       .  S
N254        C255   1.346       .  A
N254       Cu260   2.076       .  S
C255        C256   1.382       .  A
C255        H258   1.082       .  S
C256        C257   1.394       .  A
C257        H259   1.082       .  S
Cu260       N263   2.075       .  S
Cu261       N271   2.125       .  S
Cu262       N264   2.063       .  S
Cu262       N270   2.064       .  S
N263        N264   1.320       .  A
N263        C267   1.344       .  A
N264        C265   1.346       .  A
C265        C266   1.384       .  A
C265        H268   1.082       .  S
C266        C267   1.385       .  A
C266        C290   1.473   1_556  S
C267        H269   1.082       .  S
N270        N271   1.324       .  A
N270        C274   1.342       .  A
N271        C272   1.355       .  A
C272        C273   1.395       .  A
C272        H275   1.082       .  S
C273        C274   1.379       .  A
C273        C674   1.490       .  S
C274        H276   1.082       .  S
N277        N278   1.324       .  A
N277        C281   1.352       .  A
N277       Cu285   2.110       .  S
N278        C279   1.342       .  A
N278       Cu284   2.062       .  S
C279        C280   1.378       .  A
C279        H282   1.082       .  S
C280        C281   1.390       .  A
C281        H283   1.082       .  S
Cu284       N287   2.062       .  S
Cu285       N295   2.109       .  S
Cu286       N288   2.067       .  S
Cu286       N294   2.068       .  S
N287        N288   1.319       .  A
N287        C291   1.343       .  A
N288        C289   1.346       .  A
C289        C290   1.386       .  A
C289        H292   1.082       .  S
C290        C291   1.383       .  A
C291        H293   1.082       .  S
N294        N295   1.323       .  A
N294        C298   1.340       .  A
N295        C296   1.353       .  A
C296        C297   1.396       .  A
C296        H299   1.081       .  S
C297        C298   1.384       .  A
C297        C569   1.497       .  S
C298        H300   1.082       .  S
C301        C302   1.397       .  A
C301        C306   1.399       .  A
C301        H311   1.083       .  S
C302        C303   1.412       .  A
C302        C307   1.498       .  S
C303        C304   1.410       .  A
C303        S308   1.804       .  S
C304        C305   1.422       .  A
C304        H309   1.079       .  S
C305        C306   1.438       .  A
C306        S310   1.811       .  S
C307        C312   1.404       .  A
C307        C316   1.397       .  A
S308        H324   1.405       .  S
S310        H321   1.407       .  S
C312        C313   1.408       .  A
C312        S317   1.806       .  S
C313        C314   1.427       .  A
C313        H318   1.079       .  S
C314        C315   1.443       .  A
C315        C316   1.405       .  A
C315        S319   1.809       .  S
C316        H320   1.084       .  S
S317        H322   1.407       .  S
S319        H323   1.408       .  S
C325        C326   1.397       .  A
C325        C330   1.409       .  A
C325        H335   1.083       .  S
C326        C327   1.400       .  A
C326        C331   1.481       .  S
C327        C328   1.395       .  A
C327        S332   1.806       .  S
C328        C329   1.428       .  A
C328        H333   1.077       .  S
C329        C330   1.433       .  A
C330        S334   1.801       .  S
C331        C336   1.407       .  A
C331        C340   1.403       .  A
S332        H348   1.403       .  S
S334        H345   1.407       .  S
C336        C337   1.402       .  A
C336        S341   1.807       .  S
C337        C338   1.406       .  A
C337        H342   1.083       .  S
C338        C339   1.414       .  A
C339        C340   1.403       .  A
C339        S343   1.802       .  S
C340        H344   1.084       .  S
S341        H346   1.407       .  S
S343        H347   1.406       .  S
C349        C350   1.390       .  A
C349        C354   1.384       .  A
C349        H359   1.075       .  S
C350        C351   1.411       .  A
C350        C355   1.488       .  S
C351        C352   1.416       .  A
C351        S356   1.802       .  S
C352        C353   1.422       .  A
C352        H357   1.078       .  S
C353        C354   1.435       .  A
C354        S358   1.808       .  S
C355        C360   1.402       .  A
C355        C364   1.393       .  A
S356        H372   1.404       .  S
S358        H369   1.407       .  S
C360        C361   1.404       .  A
C360        S365   1.803       .  S
C361        C362   1.424       .  A
C361        H366   1.082       .  S
C362        C363   1.444       .  A
C363        C364   1.407       .  A
C363        S367   1.799       .  S
C364        H368   1.084       .  S
S365        H370   1.407       .  S
S367        H371   1.408       .  S
C373        C374   1.397       .  A
C373        C378   1.412       .  A
C373        H383   1.083       .  S
C374        C375   1.399       .  A
C374        C379   1.476       .  S
C375        C376   1.387       .  A
C375        S380   1.804       .  S
C376        C377   1.414       .  A
C376        H381   1.079       .  S
C377        C378   1.441       .  A
C378        S382   1.809       .  S
C379        C384   1.402       .  A
C379        C388   1.386       .  A
S380        H396   1.407       .  S
S382        H393   1.407       .  S
C384        C385   1.416       .  A
C384        S389   1.802       .  S
C385        C386   1.413       .  A
C385        H390   1.082       .  S
C386        C387   1.445       .  A
C387        C388   1.391       .  A
C387        S391   1.811       .  S
C388        H392   1.085       .  S
S389        H394   1.407       .  S
S391        H395   1.408       .  S
C397        C398   1.398       .  A
C397        C402   1.400       .  A
C397        H407   1.082       .  S
C398        C399   1.407       .  A
C398        C403   1.486       .  S
C399        C400   1.399       .  A
C399        S404   1.803       .  S
C400        C401   1.418       .  A
C400        H405   1.081       .  S
C401        C402   1.437       .  A
C402        S406   1.815       .  S
C403        C408   1.402       .  A
C403        C412   1.394       .  A
S404        H420   1.407       .  S
S406        H417   1.407       .  S
C408        C409   1.402       .  A
C408        S413   1.806       .  S
C409        C410   1.425       .  A
C409        H414   1.081       .  S
C410        C411   1.452       .  A
C411        C412   1.399       .  A
C411        S415   1.822       .  S
C412        H416   1.085       .  S
S413        H418   1.407       .  S
S415        H419   1.390       .  S
C421        C422   1.398       .  A
C421        C426   1.409       .  A
C421        H431   1.084       .  S
C422        C423   1.401       .  A
C422        C427   1.482       .  S
C423        C424   1.392       .  A
C423        S428   1.811       .  S
C424        C425   1.421       .  A
C424        H429   1.074       .  S
C425        C426   1.442       .  A
C426        S430   1.807       .  S
C427        C432   1.402       .  A
C427        C436   1.399       .  A
S428        H444   1.407       .  S
S430        H441   1.397       .  S
C432        C433   1.396       .  A
C432        S437   1.804       .  S
C433        C434   1.421       .  A
C433        H438   1.078       .  S
C434        C435   1.432       .  A
C435        C436   1.407       .  A
C435        S439   1.805       .  S
C436        H440   1.083       .  S
S437        H442   1.406       .  S
S439        H443   1.407       .  S
C445        C446   1.394       .  A
C445        C450   1.402       .  A
C445        H455   1.085       .  S
C446        C447   1.406       .  A
C446        C451   1.492       .  S
C447        C448   1.402       .  A
C447        S452   1.807       .  S
C448        C449   1.424       .  A
C448        H453   1.071       .  S
C449        C450   1.445       .  A
C450        S454   1.810       .  S
C451        C456   1.401       .  A
C451        C460   1.400       .  A
S452        H468   1.406       .  S
S454        H465   1.389       .  S
C456        C457   1.397       .  A
C456        S461   1.807       .  S
C457        C458   1.427       .  A
C457        H462   1.081       .  S
C458        C459   1.446       .  A
C459        C460   1.412       .  A
C459        S463   1.811       .  S
C460        H464   1.084       .  S
S461        H466   1.407       .  S
S463        H467   1.391       .  S
C469        C470   1.403       .  A
C469        C474   1.419       .  A
C469        H479   1.082       .  S
C470        C471   1.403       .  A
C470        C475   1.498       .  S
C471        C472   1.397       .  A
C471        S476   1.806       .  S
C472        C473   1.425       .  A
C472        H477   1.076       .  S
C473        C474   1.436       .  A
C474        S478   1.808       .  S
C475        C480   1.414       .  A
C475        C484   1.401       .  A
S476        H492   1.406       .  S
S478        H489   1.406       .  S
C480        C481   1.413       .  A
C480        S485   1.806       .  S
C481        C482   1.407       .  A
C481        H486   1.082       .  S
C482        C483   1.421       .  A
C483        C484   1.404       .  A
C483        S487   1.803       .  S
C484        H488   1.084       .  S
S485        H490   1.407       .  S
S487        H491   1.407       .  S
C493        C494   1.396       .  A
C493        C498   1.403       .  A
C493        H503   1.083       .  S
C494        C495   1.406       .  A
C494        C499   1.491       .  S
C495        C496   1.401       .  A
C495        S500   1.804       .  S
C496        C497   1.427       .  A
C496        H501   1.083       .  S
C497        C498   1.438       .  A
C498        S502   1.796       .  S
C499        C504   1.403       .  A
C499        C508   1.396       .  A
S500        H516   1.406       .  S
S502        H513   1.407       .  S
C504        C505   1.405       .  A
C504        S509   1.809       .  S
C505        C506   1.426       .  A
C505        H510   1.072       .  S
C506        C507   1.436       .  A
C507        C508   1.401       .  A
C507        S511   1.807       .  S
C508        H512   1.083       .  S
S509        H514   1.407       .  S
S511        H515   1.406       .  S
C517        C518   1.393       .  A
C517        C522   1.397       .  A
C517        H527   1.084       .  S
C518        C519   1.409       .  A
C518        C523   1.488       .  S
C519        C520   1.410       .  A
C519        S524   1.802       .  S
C520        C521   1.421       .  A
C520        H525   1.079       .  S
C521        C522   1.438       .  A
C522        S526   1.811       .  S
C523        C528   1.403       .  A
C523        C532   1.404       .  A
S524        H540   1.405       .  S
S526        H537   1.407       .  S
C528        C529   1.397       .  A
C528        S533   1.809       .  S
C529        C530   1.423       .  A
C529        H534   1.079       .  S
C530        C531   1.429       .  A
C531        C532   1.412       .  A
C531        S535   1.797       .  S
C532        H536   1.083       .  S
S533        H538   1.407       .  S
S535        H539   1.406       .  S
C541        C542   1.405       .  A
C541        C546   1.421       .  A
C541        H551   1.084       .  S
C542        C543   1.397       .  A
C542        C547   1.493       .  S
C543        C544   1.384       .  A
C543        S548   1.805       .  S
C544        C545   1.424       .  A
C544        H549   1.077       .  S
C545        C546   1.443       .  A
C546        S550   1.805       .  S
C547        C552   1.405       .  A
C547        C556   1.394       .  A
S548        H564   1.407       .  S
S550        H561   1.393       .  S
C552        C553   1.406       .  A
C552        S557   1.808       .  S
C553        C554   1.426       .  A
C553        H558   1.072       .  S
C554        C555   1.436       .  A
C555        C556   1.407       .  A
C555        S559   1.799       .  S
C556        H560   1.083       .  S
S557        H562   1.407       .  S
S559        H563   1.407       .  S
C565        C566   1.405       .  A
C565        C570   1.406       .  A
C565        H575   1.084       .  S
C566        C567   1.410       .  A
C566        C571   1.490       .  S
C567        C568   1.398       .  A
C567        S572   1.805       .  S
C568        C569   1.409       .  A
C568        H573   1.083       .  S
C569        C570   1.419       .  A
C570        S574   1.800       .  S
C571        C576   1.402       .  A
C571        C580   1.396       .  A
S572        H588   1.406       .  S
S574        H585   1.407       .  S
C576        C577   1.402       .  A
C576        S581   1.807       .  S
C577        C578   1.422       .  A
C577        H582   1.078       .  S
C578        C579   1.442       .  A
C579        C580   1.409       .  A
C579        S583   1.809       .  S
C580        H584   1.083       .  S
S581        H586   1.407       .  S
S583        H587   1.407       .  S
C589        C590   1.398       .  A
C589        C594   1.391       .  A
C589        H599   1.081       .  S
C590        C591   1.418       .  A
C590        C595   1.498       .  S
C591        C592   1.410       .  A
C591        S596   1.802       .  S
C592        C593   1.421       .  A
C592        H597   1.083       .  S
C593        C594   1.425       .  A
C594        S598   1.804       .  S
C595        C600   1.409       .  A
C595        C604   1.396       .  A
S596        H612   1.407       .  S
S598        H609   1.407       .  S
C600        C601   1.403       .  A
C600        S605   1.812       .  S
C601        C602   1.420       .  A
C601        H606   1.068       .  S
C602        C603   1.443       .  A
C603        C604   1.403       .  A
C603        S607   1.810       .  S
C604        H608   1.081       .  S
S605        H610   1.407       .  S
S607        H611   1.406       .  S
C613        C614   1.397       .  A
C613        C618   1.410       .  A
C613        H623   1.083       .  S
C614        C615   1.406       .  A
C614        C619   1.490       .  S
C615        C616   1.400       .  A
C615        S620   1.805       .  S
C616        C617   1.423       .  A
C616        H621   1.075       .  S
C617        C618   1.441       .  A
C618        S622   1.816       .  S
C619        C624   1.399       .  A
C619        C628   1.399       .  A
S620        H636   1.405       .  S
S622        H633   1.406       .  S
C624        C625   1.397       .  A
C624        S629   1.807       .  S
C625        C626   1.424       .  A
C625        H630   1.065       .  S
C626        C627   1.438       .  A
C627        C628   1.414       .  A
C627        S631   1.807       .  S
C628        H632   1.082       .  S
S629        H634   1.405       .  S
S631        H635   1.406       .  S
C637        C638   1.397       .  A
C637        C642   1.408       .  A
C637        H647   1.083       .  S
C638        C639   1.403       .  A
C638        C643   1.483       .  S
C639        C640   1.399       .  A
C639        S644   1.803       .  S
C640        C641   1.417       .  A
C640        H645   1.066       .  S
C641        C642   1.435       .  A
C642        S646   1.808       .  S
C643        C648   1.401       .  A
C643        C652   1.400       .  A
S644        H660   1.404       .  S
S646        H657   1.407       .  S
C648        C649   1.394       .  A
C648        S653   1.810       .  S
C649        C650   1.424       .  A
C649        H654   1.083       .  S
C650        C651   1.442       .  A
C651        C652   1.411       .  A
C651        S655   1.804       .  S
C652        H656   1.084       .  S
S653        H658   1.407       .  S
S655        H659   1.401       .  S
C661        C662   1.392       .  A
C661        C666   1.402       .  A
C661        H671   1.085       .  S
C662        C663   1.407       .  A
C662        C667   1.490       .  S
C663        C664   1.404       .  A
C663        S668   1.803       .  S
C664        C665   1.421       .  A
C664        H669   1.083       .  S
C665        C666   1.450       .  A
C666        S670   1.812       .  S
C667        C672   1.409       .  A
C667        C676   1.406       .  A
S668        H684   1.406       .  S
S670        H681   1.395       .  S
C672        C673   1.404       .  A
C672        S677   1.806       .  S
C673        C674   1.406       .  A
C673        H678   1.083       .  S
C674        C675   1.413       .  A
C675        C676   1.410       .  A
C675        S679   1.805       .  S
C676        H680   1.083       .  S
S677        H682   1.406       .  S
S679        H683   1.407       .  S
C685        C686   1.396       .  A
C685        C690   1.402       .  A
C685        H695   1.083       .  S
C686        C687   1.403       .  A
C686        C691   1.483       .  S
C687        C688   1.399       .  A
C687        S692   1.807       .  S
C688        C689   1.424       .  A
C688        H693   1.071       .  S
C689        C690   1.438       .  A
C690        S694   1.809       .  S
C691        C696   1.403       .  A
C691        C700   1.392       .  A
S692        H708   1.406       .  S
S694        H705   1.406       .  S
C696        C697   1.407       .  A
C696        S701   1.805       .  S
C697        C698   1.419       .  A
C697        H702   1.081       .  S
C698        C699   1.445       .  A
C699        C700   1.399       .  A
C699        S703   1.819       .  S
C700        H704   1.083       .  S
S701        H706   1.407       .  S
S703        H707   1.407       .  S
C709        C710   1.398       .  A
C709        C714   1.410       .  A
C709        H719   1.083       .  S
C710        C711   1.404       .  A
C710        C715   1.487       .  S
C711        C712   1.396       .  A
C711        S716   1.800       .  S
C712        C713   1.418       .  A
C712        H717   1.079       .  S
C713        C714   1.431       .  A
C714        S718   1.803       .  S
C715        C720   1.402       .  A
C715        C724   1.396       .  A
S716        H732   1.406       .  S
S718        H729   1.407       .  S
C720        C721   1.398       .  A
C720        S725   1.805       .  S
C721        C722   1.423       .  A
C721        H726   1.081       .  S
C722        C723   1.441       .  A
C723        C724   1.412       .  A
C723        S727   1.807       .  S
C724        H728   1.083       .  S
S725        H730   1.406       .  S
S727        H731   1.407       .  S
C733        C734   1.392       .  A
C733        C738   1.395       .  A
C733        H743   1.084       .  S
C734        C735   1.407       .  A
C734        C739   1.483       .  S
C735        C736   1.409       .  A
C735        S740   1.803       .  S
C736        C737   1.422       .  A
C736        H741   1.079       .  S
C737        C738   1.436       .  A
C738        S742   1.807       .  S
C739        C744   1.402       .  A
C739        C748   1.400       .  A
S740        H756   1.404       .  S
S742        H753   1.407       .  S
C744        C745   1.398       .  A
C744        S749   1.809       .  S
C745        C746   1.424       .  A
C745        H750   1.079       .  S
C746        C747   1.429       .  A
C747        C748   1.412       .  A
C747        S751   1.800       .  S
C748        H752   1.083       .  S
S749        H754   1.406       .  S
S751        H755   1.407       .  S
C757        C758   1.401       .  A
C757        C762   1.409       .  A
C757        H767   1.083       .  S
C758        C759   1.400       .  A
C758        C763   1.476       .  S
C759        C760   1.389       .  A
C759        S764   1.808       .  S
C760        C761   1.425       .  A
C760        H765   1.080       .  S
C761        C762   1.431       .  A
C762        S766   1.808       .  S
C763        C768   1.403       .  A
C763        C772   1.389       .  A
S764        H780   1.406       .  S
S766        H777   1.406       .  S
C768        C769   1.400       .  A
C768        S773   1.808       .  S
C769        C770   1.421       .  A
C769        H774   1.082       .  S
C770        C771   1.444       .  A
C771        C772   1.401       .  A
C771        S775   1.811       .  S
C772        H776   1.083       .  S
S773        H778   1.406       .  S
S775        H779   1.406       .  S
C781        C782   1.399       .  A
C781        C786   1.413       .  A
C781        H791   1.084       .  S
C782        C783   1.396       .  A
C782        C787   1.482       .  S
C783        C784   1.386       .  A
C783        S788   1.801       .  S
C784        C785   1.424       .  A
C784        H789   1.081       .  S
C785        C786   1.445       .  A
C786        S790   1.808       .  S
C787        C792   1.402       .  A
C787        C796   1.393       .  A
S788        H804   1.408       .  S
S790        H801   1.395       .  S
C792        C793   1.400       .  A
C792        S797   1.809       .  S
C793        C794   1.419       .  A
C793        H798   1.070       .  S
C794        C795   1.441       .  A
C795        C796   1.405       .  A
C795        S799   1.812       .  S
C796        H800   1.083       .  S
S797        H802   1.407       .  S
S799        H803   1.406       .  S
C805        C806   1.396       .  A
C805        C810   1.408       .  A
C805        H815   1.083       .  S
C806        C807   1.403       .  A
C806        C811   1.492       .  S
C807        C808   1.400       .  A
C807        S812   1.806       .  S
C808        C809   1.425       .  A
C808        H813   1.068       .  S
C809        C810   1.438       .  A
C810        S814   1.804       .  S
C811        C816   1.401       .  A
C811        C820   1.401       .  A
S812        H828   1.407       .  S
S814        H825   1.407       .  S
C816        C817   1.389       .  A
C816        S821   1.805       .  S
C817        C818   1.424       .  A
C817        H822   1.079       .  S
C818        C819   1.443       .  A
C819        C820   1.415       .  A
C819        S823   1.801       .  S
C820        H824   1.084       .  S
S821        H826   1.406       .  S
S823        H827   1.398       .  S
C829        C830   1.404       .  A
C829        C834   1.403       .  A
C829        H839   1.084       .  S
C830        C831   1.410       .  A
C830        C835   1.485       .  S
C831        C832   1.399       .  A
C831        S836   1.805       .  S
C832        C833   1.409       .  A
C832        H837   1.083       .  S
C833        C834   1.417       .  A
C834        S838   1.801       .  S
C835        C840   1.403       .  A
C835        C844   1.392       .  A
S836        H852   1.406       .  S
S838        H849   1.407       .  S
C840        C841   1.405       .  A
C840        S845   1.807       .  S
C841        C842   1.424       .  A
C841        H846   1.076       .  S
C842        C843   1.435       .  A
C843        C844   1.401       .  A
C843        S847   1.799       .  S
C844        H848   1.083       .  S
S845        H850   1.407       .  S
S847        H851   1.406       .  S
C853        C854   1.396       .  A
C853        C858   1.409       .  A
C853        H863   1.083       .  S
C854        C855   1.404       .  A
C854        C859   1.490       .  S
C855        C856   1.401       .  A
C855        S860   1.804       .  S
C856        C857   1.421       .  A
C856        H861   1.079       .  S
C857        C858   1.441       .  A
C858        S862   1.811       .  S
C859        C864   1.412       .  A
C859        C868   1.399       .  A
S860        H876   1.405       .  S
S862        H873   1.407       .  S
C864        C865   1.411       .  A
C864        S869   1.806       .  S
C865        C866   1.407       .  A
C865        H870   1.083       .  S
C866        C867   1.419       .  A
C867        C868   1.401       .  A
C867        S871   1.803       .  S
C868        H872   1.084       .  S
S869        H874   1.407       .  S
S871        H875   1.407       .  S
C877        C878   1.400       .  A
C877        C882   1.403       .  A
C877        H887   1.083       .  S
C878        C879   1.413       .  A
C878        C883   1.485       .  S
C879        C880   1.401       .  A
C879        S884   1.797       .  S
C880        C881   1.402       .  A
C880        H885   1.084       .  S
C881        C882   1.415       .  A
C882        S886   1.807       .  S
C883        C888   1.407       .  A
C883        C892   1.395       .  A
S884        H900   1.406       .  S
S886        H897   1.407       .  S
C888        C889   1.406       .  A
C888        S893   1.806       .  S
C889        C890   1.418       .  A
C889        H894   1.079       .  S
C890        C891   1.435       .  A
C891        C892   1.404       .  A
C891        S895   1.811       .  S
C892        H896   1.083       .  S
S893        H898   1.406       .  S
S895        H899   1.406       .  S
C901        C902   1.402       .  A
C901        C906   1.401       .  A
C901        H911   1.084       .  S
C902        C903   1.415       .  A
C902        C907   1.486       .  S
C903        C904   1.405       .  A
C903        S908   1.806       .  S
C904        C905   1.405       .  A
C904        H909   1.084       .  S
C905        C906   1.416       .  A
C906        S910   1.803       .  S
C907        C912   1.399       .  A
C907        C916   1.397       .  A
S908        H924   1.403       .  S
S910        H921   1.406       .  S
C912        C913   1.400       .  A
C912        S917   1.806       .  S
C913        C914   1.422       .  A
C913        H918   1.081       .  S
C914        C915   1.441       .  A
C915        C916   1.413       .  A
C915        S919   1.812       .  S
C916        H920   1.082       .  S
S917        H922   1.407       .  S
S919        H923   1.406       .  S
C925        C926   1.396       .  A
C925        C930   1.405       .  A
C925        H935   1.083       .  S
C926        C927   1.409       .  A
C926        C931   1.493       .  S
C927        C928   1.405       .  A
C927        S932   1.804       .  S
C928        C929   1.420       .  A
C928        H933   1.078       .  S
C929        C930   1.436       .  A
C930        S934   1.805       .  S
C931        C936   1.413       .  A
C931        C940   1.402       .  A
S932        H948   1.406       .  S
S934        H945   1.406       .  S
C936        C937   1.405       .  A
C936        S941   1.806       .  S
C937        C938   1.404       .  A
C937        H942   1.082       .  S
C938        C939   1.419       .  A
C939        C940   1.408       .  A
C939        S943   1.808       .  S
C940        H944   1.083       .  S
S941        H946   1.406       .  S
S943        H947   1.407       .  S
C949        C950   1.396       .  A
C949        C954   1.405       .  A
C949        H959   1.084       .  S
C950        C951   1.405       .  A
C950        C955   1.488       .  S
C951        C952   1.398       .  A
C951        S956   1.805       .  S
C952        C953   1.420       .  A
C952        H957   1.082       .  S
C953        C954   1.442       .  A
C954        S958   1.812       .  S
C955        C960   1.413       .  A
C955        C964   1.401       .  A
S956        H972   1.406       .  S
S958        H969   1.408       .  S
C960        C961   1.407       .  A
C960        S965   1.807       .  S
C961        C962   1.406       .  A
C961        H966   1.082       .  S
C962        C963   1.418       .  A
C963        C964   1.399       .  A
C963        S967   1.803       .  S
C964        H968   1.084       .  S
S965        H970   1.407       .  S
S967        H971   1.407       .  S
C973        C974   1.403       .  A
C973        C978   1.401       .  A
C973        H983   1.084       .  S
C974        C975   1.412       .  A
C974        C979   1.486       .  S
C975        C976   1.405       .  A
C975        S980   1.804       .  S
C976        C977   1.407       .  A
C976        H981   1.084       .  S
C977        C978   1.414       .  A
C978        S982   1.802       .  S
C979        C984   1.402       .  A
C979        C988   1.395       .  A
S980        H996   1.405       .  S
S982        H993   1.407       .  S
C984        C985   1.403       .  A
C984        S989   1.807       .  S
C985        C986   1.423       .  A
C985        H990   1.074       .  S
C986        C987   1.438       .  A
C987        C988   1.407       .  A
C987        S991   1.812       .  S
C988        H992   1.082       .  S
S989        H994   1.407       .  S
S991        H995   1.406       .  S
C997        C998   1.399       .  A
C997       C1002   1.410       .  A
C997       H1007   1.083       .  S
C998        C999   1.407       .  A
C998       C1003   1.493       .  S
C999       C1000   1.396       .  A
C999       S1004   1.805       .  S
C1000      C1001   1.419       .  A
C1000      H1005   1.082       .  S
C1001      C1002   1.441       .  A
C1002      S1006   1.812       .  S
C1003      C1008   1.415       .  A
C1003      C1012   1.401       .  A
S1004      H1020   1.407       .  S
S1006      H1017   1.407       .  S
C1008      C1009   1.409       .  A
C1008      S1013   1.807       .  S
C1009      C1010   1.406       .  A
C1009      H1014   1.082       .  S
C1010      C1011   1.419       .  A
C1011      C1012   1.397       .  A
C1011      S1015   1.803       .  S
C1012      H1016   1.084       .  S
S1013      H1018   1.407       .  S
S1015      H1019   1.407       .  S
