geometry optimzed in LAMMPS
_audit_creation_date              2020-12-01 
_audit_creation_method            'lammps2cif' 
_symmetry_space_group_name_H-M    'P1' 
_symmetry_Int_Tables_number       1 
_symmetry_cell_setting            triclinic 
loop_ 
_symmetry_equiv_pos_as_xyz 
  x,y,z 
_cell_length_a                    103.40879065 
_cell_length_b                    103.63974111140793 
_cell_length_c                    39.8966155269922 
_cell_angle_alpha                 88.15636046728542 
_cell_angle_beta                  91.1514879750735 
_cell_angle_gamma                 134.42275362101657 
loop_ 
_atom_site_label 
_atom_site_type_symbol 
_atom_site_fract_x 
_atom_site_fract_y 
_atom_site_fract_z 
_atom_site_charge 
N1          N  0.47169421  0.90750474  0.80964703    -0.25500
N2          N  0.46123308  0.89680617  0.83539753    -0.33300
C3          C  0.45531637  0.88058833  0.83201506     0.02900
C4          C  0.46222776  0.88075889  0.80264074     0.08900
C5          C  0.47273204  0.89813742  0.78905368    -0.04200
H6          H  0.44658103  0.86945966  0.84988290     0.09600
H7          H  0.48012024  0.90338784  0.76557193     0.10800
Cu8        Cu  0.45431191  0.90342118  0.87439638     0.44200
Cu9        Cu  0.48273251  0.93387154  0.80446751     0.42000
Cu10       Cu  0.46351364  0.94254933  0.86794129     0.43900
N11         N  0.44734025  0.91072266  0.91184068    -0.32800
N12         N  0.45040107  0.92536808  0.90956596    -0.27100
C13         C  0.44554790  0.92727899  0.93863436    -0.03200
C14         C  0.43912273  0.91303413  0.96035393     0.09000
C15         C  0.44056209  0.90288868  0.94222067     0.02800
H16         H  0.44719157  0.93853159  0.94373801     0.10500
H17         H  0.43802220  0.89129621  0.95101403     0.09500
N18         N  0.48067208  0.95995234  0.82876065    -0.34300
N19         N  0.48854852  0.95774321  0.80720135    -0.26500
C20         C  0.50034812  0.97306750  0.78827936    -0.01700
C21         C  0.49948189  0.98518966  0.79808003     0.06900
C22         C  0.48692347  0.97637010  0.82372948     0.05000
H23         H  0.50899043  0.97526804  0.76902404     0.10100
H24         H  0.48324101  0.98186296  0.83891469     0.08900
N25         N  0.48738645  0.89958868  0.34663515    -0.25500
N26         N  0.47820683  0.89006008  0.31965615    -0.33300
C27         C  0.47426206  0.87467357  0.32131182     0.02900
C28         C  0.48106815  0.87417056  0.35090033     0.08900
C29         C  0.48945368  0.89029125  0.36628898    -0.04200
H30         H  0.46641190  0.86431993  0.30268475     0.09600
H31         H  0.49568561  0.89447128  0.39079810     0.10800
Cu32       Cu  0.46879326  0.89624350  0.28317567     0.44200
Cu33       Cu  0.49499734  0.92395279  0.35639345     0.42000
Cu34       Cu  0.47415007  0.93279699  0.29647326     0.43900
N35         N  0.45837418  0.90284550  0.25065492    -0.32800
N36         N  0.46021470  0.91657606  0.25555842    -0.27100
C37         C  0.45358115  0.91863809  0.22887288    -0.03200
C38         C  0.44734404  0.90553913  0.20601444     0.09000
C39         C  0.45050308  0.89570120  0.22086366     0.02800
H40         H  0.45450930  0.92965684  0.22528226     0.10500
H41         H  0.44811990  0.88473474  0.21013223     0.09500
N42         N  0.49047535  0.94899093  0.33610112    -0.34300
N43         N  0.49854753  0.94652859  0.35757843    -0.26500
C44         C  0.50880915  0.96063782  0.37849085    -0.01700
C45         C  0.50680459  0.97227449  0.36981392     0.06900
C46         C  0.49519266  0.96440357  0.34275917     0.05000
H47         H  0.51709226  0.96229787  0.39840188     0.10100
H48         H  0.49093542  0.96981530  0.32799930     0.08900
N49         N  0.58550508  0.14421749  0.81910323    -0.25500
N50         N  0.59460237  0.14254579  0.83926421    -0.33300
C51         C  0.58841185  0.12619476  0.83601999     0.02900
C52         C  0.57438206  0.11662431  0.81322572     0.08900
C53         C  0.57302994  0.12858786  0.80258609    -0.04200
H54         H  0.59340796  0.12145204  0.85046759     0.09600
H55         H  0.56311289  0.12581642  0.78554590     0.10800
Cu56       Cu  0.61207727  0.15967697  0.87684166     0.44200
Cu57       Cu  0.58972550  0.16729253  0.81807378     0.42000
Cu58       Cu  0.61149062  0.19182224  0.89539235     0.43900
N59         N  0.62208341  0.17308161  0.92143256    -0.32800
N60         N  0.62181564  0.18525856  0.92819991    -0.27100
C61         C  0.62789377  0.19103422  0.95944450    -0.03200
C62         C  0.63196264  0.18182540  0.97321709     0.09000
C63         C  0.62801070  0.17042751  0.94852106     0.02800
H64         H  0.62838332  0.20050231  0.97181899     0.10500
H65         H  0.62884325  0.16058422  0.95041509     0.09500
N66         N  0.60381411  0.19933085  0.85787716    -0.34300
N67         N  0.59681867  0.19138014  0.82871641    -0.26500
C68         C  0.59593927  0.20162139  0.80904940    -0.01700
C69         C  0.60245130  0.21645739  0.82715129     0.06900
C70         C  0.60725551  0.21442552  0.85787151     0.05000
H71         H  0.59124037  0.19868530  0.78339161     0.10100
H72         H  0.61385945  0.22384806  0.87814976     0.08900
N73         N  0.60471935  0.18075691  0.37635885    -0.25500
N74         N  0.61655728  0.19330589  0.35359728    -0.33300
C75         C  0.62050903  0.20844369  0.35906693     0.02900
C76         C  0.61089197  0.20563580  0.38671702     0.08900
C77         C  0.60091475  0.18783877  0.39700045    -0.04200
H78         H  0.62955972  0.22055464  0.34342919     0.09600
H79         H  0.59176714  0.18063915  0.41821075     0.10800
Cu80       Cu  0.62713871  0.19055304  0.31426941     0.44200
Cu81       Cu  0.59418542  0.15447435  0.37787735     0.42000
Cu82       Cu  0.61014730  0.14782920  0.30641404     0.43900
N83         N  0.63322483  0.18398858  0.27313216    -0.32800
N84         N  0.62658867  0.16764570  0.27036707    -0.27100
C85         C  0.63025433  0.16595993  0.23969134    -0.03200
C86         C  0.63965524  0.18208543  0.22197638     0.09000
C87         C  0.64138448  0.19328389  0.24413938     0.02800
H88         H  0.62501621  0.15340775  0.23008905     0.10500
H89         H  0.64712144  0.20675562  0.23902273     0.09500
N90         N  0.59272831  0.12824463  0.34218691    -0.34300
N91         N  0.58670651  0.13005898  0.36873909    -0.26500
C92         C  0.57540572  0.11406509  0.38595432    -0.01700
C93         C  0.57426231  0.10177224  0.36891129     0.06900
C94         C  0.58549814  0.11137346  0.34150704     0.05000
H95         H  0.56819198  0.11143290  0.40857614     0.10100
H96         H  0.58829856  0.10648143  0.32225759     0.08900
N97         N  0.94062967  0.48882013  0.79910160    -0.25500
N98         N  0.94137204  0.47919363  0.82008219    -0.33300
C99         C  0.95683522  0.48353530  0.81511400     0.02900
C100        C  0.96666149  0.49678303  0.79025615     0.08900
C101        C  0.95603271  0.49992129  0.78070396    -0.04200
H102        H  0.96147167  0.47878110  0.83095446     0.09600
H103        H  0.95966671  0.51017397  0.76305219     0.10800
Cu104      Cu  0.92487055  0.46453598  0.86139207     0.44200
Cu105      Cu  0.91934789  0.48747671  0.79928443     0.42000
Cu106      Cu  0.89313869  0.46666341  0.87675786     0.43900
N107        N  0.91197758  0.45687737  0.90713509    -0.32800
N108        N  0.89988756  0.45749704  0.91265814    -0.27100
C109        C  0.89473474  0.45313238  0.94496234    -0.03200
C110        C  0.90427751  0.44986456  0.96066702     0.09000
C111        C  0.91516925  0.45243911  0.93598830     0.02800
H112        H  0.88558181  0.45342975  0.95661057     0.10500
H113        H  0.92512001  0.45178320  0.93901856     0.09500
N114        N  0.88735212  0.47540944  0.83765863    -0.34300
N115        N  0.89628998  0.48262657  0.80891985    -0.26500
C116        C  0.88758844  0.48519549  0.78863000    -0.01700
C117        C  0.87247591  0.47923261  0.80555817     0.06900
C118        C  0.87301966  0.47332813  0.83662811     0.05000
H119        H  0.89154725  0.49032104  0.76303904     0.10100
H120        H  0.86352126  0.46759810  0.85709657     0.08900
N121        N  0.89241201  0.46254217  0.37074686    -0.25500
N122        N  0.88483522  0.45813029  0.34085772    -0.33300
C123        C  0.86987296  0.45492723  0.34220795     0.02900
C124        C  0.86756573  0.45715736  0.37474254     0.08900
C125        C  0.88223316  0.46215062  0.39223703    -0.04200
H126        H  0.86112982  0.45083292  0.32103028     0.09600
H127        H  0.88485942  0.46449474  0.41882959     0.10800
Cu128      Cu  0.89318766  0.45403614  0.30022468     0.44200
Cu129      Cu  0.91544480  0.46734896  0.37946034     0.42000
Cu130      Cu  0.92690704  0.45376119  0.30912287     0.43900
N131        N  0.90053709  0.44771812  0.26176040    -0.32800
N132        N  0.91302077  0.44735842  0.26436261    -0.27100
C133        C  0.91577619  0.44442002  0.23381277    -0.03200
C134        C  0.90446394  0.44299391  0.21122711     0.09000
C135        C  0.89497490  0.44505857  0.22993373     0.02800
H136        H  0.92612538  0.44466531  0.22802928     0.10500
H137        H  0.88543564  0.44560669  0.22077692     0.09500
N138        N  0.94075911  0.46421892  0.35440744    -0.34300
N139        N  0.93737663  0.46993884  0.37874554    -0.26500
C140        C  0.95069433  0.47816757  0.40170192    -0.01700
C141        C  0.96275785  0.47723247  0.39167477     0.06900
C142        C  0.95602945  0.46834142  0.36165813     0.05000
H143        H  0.95185322  0.48490071  0.42345138     0.10100
H144        H  0.96250613  0.46621657  0.34502576     0.08900
N145        N  0.17447636  0.59449061  0.84231155    -0.25500
N146        N  0.18458970  0.60381564  0.86880786    -0.33300
C147        C  0.20102447  0.61005899  0.86484514     0.02900
C148        C  0.20156973  0.60452897  0.83438372     0.08900
C149        C  0.18442483  0.59452378  0.82076488    -0.04200
H150        H  0.21190952  0.61832096  0.88276532     0.09600
H151        H  0.17980446  0.58840217  0.79640217     0.10800
Cu152      Cu  0.17720221  0.60949544  0.90897179     0.44200
Cu153      Cu  0.14817475  0.58371342  0.83628885     0.42000
Cu154      Cu  0.13717093  0.59905020  0.90230410     0.43900
N155        N  0.16885569  0.61567332  0.94608993    -0.32800
N156        N  0.15387278  0.61207167  0.94347225    -0.27100
C157        C  0.15122507  0.61648902  0.97208935    -0.03200
C158        C  0.16525234  0.62311081  0.99381310     0.09000
C159        C  0.17620257  0.62243348  0.97638339     0.02800
H160        H  0.13937728  0.61394090  0.97749092     0.10500
H161        H  0.18825088  0.62594909  0.98544365     0.09500
N162        N  0.12049941  0.58321589  0.86258823    -0.34300
N163        N  0.12375815  0.57710432  0.83897421    -0.26500
C164        C  0.10902779  0.56632251  0.81897786    -0.01700
C165        C  0.09594203  0.56558675  0.83088651     0.06900
C166        C  0.10391746  0.57663780  0.85829663     0.05000
H167        H  0.10775002  0.55914692  0.79796305     0.10100
H168        H  0.09809263  0.57969388  0.87437091     0.08900
N169        N  0.12296941  0.56718656  0.38502641    -0.25500
N170        N  0.12057202  0.57651723  0.36784119    -0.33300
C171        C  0.10346452  0.56851921  0.37140343     0.02900
C172        C  0.09423223  0.55312318  0.39124150     0.08900
C173        C  0.10707462  0.55275852  0.39993909    -0.04200
H174        H  0.09794432  0.57317300  0.35886940     0.09600
H175        H  0.10478649  0.54228757  0.41434025     0.10800
Cu176      Cu  0.13807131  0.59736777  0.33360376     0.44200
Cu177      Cu  0.14754824  0.57411848  0.38445589     0.42000
Cu178      Cu  0.17806234  0.60943204  0.32011740     0.43900
N179        N  0.15380878  0.61289173  0.29213678    -0.32800
N180        N  0.16913712  0.61745039  0.28723530    -0.27100
C181        C  0.17559518  0.62519311  0.25667408    -0.03200
C182        C  0.16365915  0.62547128  0.24126166     0.09000
C183        C  0.14993119  0.61750866  0.26463217     0.02800
H184        H  0.18726410  0.62885177  0.24544346     0.10500
H185        H  0.13756839  0.61434716  0.26130364     0.09500
N186        N  0.18476565  0.59912319  0.35268836    -0.34300
N187        N  0.17417475  0.58638064  0.37604478    -0.26500
C188        C  0.18373630  0.58377406  0.39265839    -0.01700
C189        C  0.20105814  0.59538207  0.37877042     0.06900
C190        C  0.20106541  0.60487437  0.35369091     0.05000
H191        H  0.17850745  0.57428490  0.41346589     0.10100
H192        H  0.21235626  0.61580338  0.33799464     0.08900
C193        C  0.76601738  0.45837728  0.71625944    -0.00700
C194        C  0.64176786  0.33197813  0.74004723    -0.00700
C195        C  0.66605481  0.43754921  0.72003371    -0.00700
C196        C  0.75666072  0.42285842  0.47134689    -0.00700
C197        C  0.64196076  0.31048791  0.49146917    -0.00700
C198        C  0.65862956  0.41645488  0.47240342    -0.00700
C199        C  0.42633286  0.67717760  0.73605433    -0.00700
C200        C  0.42834510  0.76755785  0.72756805    -0.00700
C201        C  0.31549667  0.64870718  0.72414556    -0.00700
C202        C  0.42033184  0.66062979  0.48074815    -0.00700
C203        C  0.43944787  0.76423314  0.47506445    -0.00700
C204        C  0.32256109  0.65150768  0.46873942    -0.00700
N205        N  0.46501988  0.59149606  0.81945773    -0.25500
N206        N  0.45500863  0.58735803  0.84576130    -0.33300
C207        C  0.45041556  0.59666680  0.84367325     0.02900
C208        C  0.45794915  0.60744281  0.81483898     0.08900
C209        C  0.46702231  0.60368095  0.79989365    -0.04200
H210        H  0.44214393  0.59559297  0.86203493     0.09600
H211        H  0.47490144  0.60968920  0.77697111     0.10800
Cu212      Cu  0.44871473  0.57055125  0.88570018     0.44200
Cu213      Cu  0.47591697  0.58068126  0.81256939     0.42000
Cu214      Cu  0.46482448  0.55017911  0.88226482     0.43900
N215        N  0.44647161  0.55606012  0.92602162    -0.32800
N216        N  0.45253359  0.54836090  0.92473471    -0.27100
C217        C  0.45064224  0.54116811  0.95508222    -0.03200
C218        C  0.44301438  0.54456065  0.97672078     0.09000
C219        C  0.44056270  0.55404667  0.95724613     0.02800
H220        H  0.45488707  0.53434107  0.96095517     0.10500
H221        H  0.43575846  0.55993500  0.96550512     0.09500
N222        N  0.47942318  0.55571100  0.84017104    -0.34300
N223        N  0.48414264  0.56704699  0.81522591    -0.26500
C224        C  0.49496943  0.56822044  0.79399721    -0.01700
C225        C  0.49687547  0.55689863  0.80615368     0.06900
C226        C  0.48685645  0.54930885  0.83543370     0.05000
H227        H  0.50116018  0.57683001  0.77169958     0.10100
H228        H  0.48576176  0.54044025  0.85304092     0.08900
N229        N  0.46353250  0.58133919  0.39021358    -0.25500
N230        N  0.45419753  0.57898804  0.36373946    -0.33300
C231        C  0.44755431  0.58612357  0.36915830     0.02900
C232        C  0.45271485  0.59340287  0.40062875     0.08900
C233        C  0.46302758  0.59028888  0.41330804    -0.04200
H234        H  0.43958992  0.58608131  0.35114711     0.09600
H235        H  0.46932144  0.59388692  0.43773310     0.10800
Cu236      Cu  0.44953353  0.56601260  0.32038651     0.44200
Cu237      Cu  0.47570085  0.57131089  0.39298899     0.42000
Cu238      Cu  0.46165750  0.54253753  0.32053026     0.43900
N239        N  0.44518150  0.55204975  0.27898596    -0.32800
N240        N  0.44963724  0.54286255  0.27915087    -0.27100
C241        C  0.44686978  0.53633210  0.24847933    -0.03200
C242        C  0.44031596  0.54171951  0.22787609     0.09000
C243        C  0.43935380  0.55162632  0.24826575     0.02800
H244        H  0.45050263  0.52923656  0.24122546     0.10500
H245        H  0.43529279  0.55852347  0.24117529     0.09500
N246        N  0.47788137  0.54705550  0.35911068    -0.34300
N247        N  0.48384237  0.55773344  0.38485362    -0.26500
C248        C  0.49559028  0.55826368  0.40230684    -0.01700
C249        C  0.49707230  0.54753311  0.38639895     0.06900
C250        C  0.48542677  0.54058545  0.35949618     0.05000
H251        H  0.50295893  0.56632678  0.42420229     0.10100
H252        H  0.48272889  0.53159400  0.34089426     0.08900
N253        N  0.61373728  0.50716836  0.81514051    -0.25500
N254        N  0.61656318  0.50358027  0.84496108    -0.33300
C255        C  0.62314357  0.49627387  0.84135541     0.02900
C256        C  0.62494351  0.49529882  0.80760290     0.08900
C257        C  0.61865073  0.50217820  0.79156496    -0.04200
H258        H  0.62656414  0.49219419  0.86214419     0.09600
H259        H  0.61821848  0.50396750  0.76483045     0.10800
Cu260      Cu  0.61424154  0.51048348  0.89047737     0.44200
Cu261      Cu  0.60396198  0.51937126  0.80931010     0.42000
Cu262      Cu  0.60611512  0.53760422  0.88949277     0.43900
N263        N  0.61661097  0.52255341  0.93310612    -0.32800
N264        N  0.61376103  0.53310412  0.93269791    -0.27100
C265        C  0.61654269  0.53945192  0.96353018    -0.03200
C266        C  0.62155076  0.53260652  0.98438929     0.09000
C267        C  0.62145978  0.52193554  0.96410846     0.02800
H268        H  0.61471093  0.54811451  0.97024949     0.10500
H269        H  0.62494205  0.51450790  0.97104884     0.09500
N270        N  0.59578945  0.53824871  0.84560009    -0.34300
N271        N  0.59444157  0.53159153  0.81653656    -0.26500
C272        C  0.58555007  0.53344618  0.79493628    -0.01700
C273        C  0.58128986  0.54175186  0.81136396     0.06900
C274        C  0.58797738  0.54443202  0.84337481     0.05000
H275        H  0.58224351  0.52887792  0.76939655     0.10100
H276        H  0.58650696  0.54968308  0.86434049     0.08900
N277        N  0.60410650  0.48566354  0.38246238    -0.25500
N278        N  0.61473279  0.49090243  0.35653176    -0.33300
C279        C  0.62015287  0.48235499  0.35750213     0.02900
C280        C  0.61275771  0.47104352  0.38547481     0.08900
C281        C  0.60270170  0.47355513  0.40102554    -0.04200
H282        H  0.62936955  0.48472637  0.33955853     0.09600
H283        H  0.59501210  0.46711547  0.42406545     0.10800
Cu284      Cu  0.62248718  0.50977927  0.32064852     0.44200
Cu285      Cu  0.59287546  0.49629346  0.38990588     0.42000
Cu286      Cu  0.61190570  0.53471712  0.33045823     0.43900
N287        N  0.62794431  0.52729490  0.28395365    -0.32800
N288        N  0.62411815  0.53692710  0.28721947    -0.27100
C289        C  0.62679200  0.54504962  0.25752540    -0.03200
C290        C  0.63253980  0.54014561  0.23442497     0.09000
C291        C  0.63312122  0.52890291  0.25235761     0.02800
H292        H  0.62380813  0.55307098  0.25285618     0.10500
H293        H  0.63554217  0.52112519  0.24260382     0.09500
N294        N  0.59425484  0.52590787  0.36954313    -0.34300
N295        N  0.58617722  0.51148299  0.38933019    -0.26500
C296        C  0.57341587  0.50859751  0.40758092    -0.01700
C297        C  0.57391297  0.52208298  0.39927921     0.06900
C298        C  0.58726138  0.53269970  0.37520374     0.05000
H299        H  0.56427002  0.49738812  0.42510329     0.10100
H300        H  0.59083689  0.54394180  0.36109089     0.08900
C301        C  0.62460339  0.52468113  0.07630896     0.14500
C302        C  0.63186153  0.54090102  0.09013589     0.01500
C303        C  0.63641370  0.55466934  0.06901440     0.16400
C304        C  0.63340568  0.55213235  0.03452215     0.25900
C305        C  0.62565157  0.53568459  0.02063183    -0.40500
C306        C  0.62148046  0.52205562  0.04187863     0.32900
C307        C  0.63375975  0.54298294  0.12680437     0.01500
F308        F  0.64382051  0.57059948  0.08185958    -0.12800
F309        F  0.61359287  0.50584042  0.02972326    -0.13300
C310        C  0.64490572  0.54201639  0.14455126     0.16400
C311        C  0.64528276  0.54216066  0.17954119     0.25900
C312        C  0.63424364  0.54295539  0.19747317    -0.40400
C313        C  0.62367203  0.54472642  0.17942390     0.32800
C314        C  0.62350154  0.54479090  0.14438674     0.14500
F315        F  0.65521935  0.54064085  0.12793775    -0.12800
F316        F  0.61258144  0.54522777  0.19541308    -0.13300
F317        F  0.65634961  0.54133340  0.19581677    -0.15600
F318        F  0.61249754  0.54557713  0.12762225    -0.14100
F319        F  0.61985336  0.51107673  0.09639046    -0.14100
F320        F  0.63835603  0.56590082  0.01474776    -0.15600
C321        C  0.52285481  0.53864491  0.43362374     0.14500
C322        C  0.52863131  0.53509706  0.40698659     0.01500
C323        C  0.52502391  0.53681916  0.37398106     0.16400
C324        C  0.51548262  0.54158995  0.36752330     0.25900
C325        C  0.50890803  0.54441210  0.39403384    -0.40500
C326        C  0.51299342  0.54320565  0.42722770     0.32900
C327        C  0.53922225  0.53044437  0.41265773     0.01500
F328        F  0.53106468  0.53415390  0.34778547    -0.12800
F329        F  0.50697115  0.54584406  0.45346510    -0.13300
C330        C  0.53176515  0.51321135  0.40474872     0.16400
C331        C  0.54280070  0.50991602  0.40326487     0.25900
C332        C  0.56151882  0.52392796  0.40899383    -0.40400
C333        C  0.56875136  0.54086263  0.41861825     0.32800
C334        C  0.55766705  0.54404019  0.42073141     0.14500
F335        F  0.51399585  0.49990452  0.39652112    -0.12800
F336        F  0.58677425  0.55461652  0.42439695    -0.13300
F337        F  0.53549746  0.49354945  0.39331328    -0.15600
F338        F  0.56520862  0.56081103  0.42814937    -0.14100
F339        F  0.52645958  0.53734011  0.46576728    -0.14100
F340        F  0.51309381  0.54386146  0.33506248    -0.15600
C341        C  0.53842097  0.56773585  0.77770242     0.14500
C342        C  0.53312547  0.55116289  0.78475896     0.01500
C343        C  0.51503331  0.53600930  0.79394227     0.16400
C344        C  0.50288507  0.53768080  0.79824187     0.25900
C345        C  0.50860549  0.55458470  0.79408270    -0.40500
C346        C  0.52630314  0.56947140  0.78252841     0.32900
C347        C  0.54681297  0.55017385  0.78702745     0.01500
F348        F  0.50940207  0.51983449  0.80127385    -0.12800
F349        F  0.53234276  0.58601038  0.77843768    -0.13300
C350        C  0.56193330  0.56205160  0.80794625     0.16400
C351        C  0.57376460  0.55999577  0.81378926     0.25900
C352        C  0.57047551  0.54560099  0.79984161    -0.40400
C353        C  0.55577741  0.53412842  0.77776353     0.32800
C354        C  0.54412928  0.53648343  0.77123927     0.14500
F355        F  0.56471594  0.57506956  0.82448726    -0.12800
F356        F  0.55199682  0.51998746  0.76404479    -0.13300
F357        F  0.58829466  0.57197757  0.83384295    -0.15600
F358        F  0.52990698  0.52504399  0.75025279    -0.14100
F359        F  0.55562838  0.58249009  0.76770775    -0.14100
F360        F  0.48563185  0.52283293  0.80785036    -0.15600
C361        C  0.44078783  0.55213206  0.13569265     0.14500
C362        C  0.43540760  0.53694596  0.12067686     0.01500
C363        C  0.43066872  0.52284633  0.14097374     0.16400
C364        C  0.43167453  0.52410814  0.17593887     0.25900
C365        C  0.43762417  0.53960263  0.19109200    -0.40500
C366        C  0.44193746  0.55350200  0.17053761     0.32900
C367        C  0.43581284  0.53651762  0.08378193     0.01500
F368        F  0.42513914  0.50790949  0.12688336    -0.12800
F369        F  0.44825061  0.56891269  0.18387498    -0.13300
C370        C  0.44906863  0.53833187  0.06817949     0.16400
C371        C  0.45117113  0.54048723  0.03330617     0.25900
C372        C  0.43988209  0.54069125  0.01339046    -0.40400
C373        C  0.42607271  0.53804506  0.02916224     0.32800
C374        C  0.42414532  0.53608413  0.06404741     0.14500
F375        F  0.46063991  0.53901605  0.08692047    -0.12800
F376        F  0.41440995  0.53737738  0.01089013    -0.13300
F377        F  0.46496756  0.54346161  0.01944612    -0.15600
F378        F  0.41105972  0.53405967  0.07870708    -0.14100
F379        F  0.44572958  0.56604888  0.11643373    -0.14100
F380        F  0.42673436  0.51013108  0.19493792    -0.15600
C381        C  0.39104791  0.74234658  0.45273743     0.14500
C382        C  0.38326127  0.72568372  0.44022576     0.01500
C383        C  0.39480210  0.72381219  0.43031740     0.16400
C384        C  0.41309813  0.73678045  0.43845222     0.25900
C385        C  0.42033712  0.75180491  0.45816139    -0.40500
C386        C  0.40958749  0.75560744  0.46044240     0.32900
C387        C  0.36364540  0.70910943  0.44438744     0.01500
F388        F  0.38820192  0.70865946  0.41515137    -0.12800
F389        F  0.41628626  0.77099891  0.47462964    -0.13300
C390        C  0.35374988  0.69667020  0.41850124     0.16400
C391        C  0.33905094  0.67825806  0.42618854     0.25900
C392        C  0.33428389  0.67198527  0.46015107    -0.40400
C393        C  0.34121755  0.68525086  0.48441004     0.32800
C394        C  0.35623202  0.70351231  0.47685710     0.14500
F395        F  0.35971008  0.70197204  0.38631151    -0.12800
F396        F  0.33404241  0.68093145  0.51562034    -0.13300
F397        F  0.33146061  0.66639613  0.40090447    -0.15600
F398        F  0.36461204  0.71538303  0.50225909    -0.14100
F399        F  0.38045890  0.74520202  0.45999630    -0.14100
F400        F  0.42337283  0.73418276  0.42692429    -0.15600
C401        C  0.44473132  0.64922897  0.43629552     0.14500
C402        C  0.43473393  0.63157394  0.44843338     0.01500
C403        C  0.41990956  0.62330805  0.46952607     0.16400
C404        C  0.41543497  0.63263666  0.47917011     0.25900
C405        C  0.42572615  0.65078214  0.46815546    -0.40500
C406        C  0.44019171  0.65863453  0.44537318     0.32900
C407        C  0.43922052  0.62142833  0.43795308     0.01500
F408        F  0.40988812  0.60617673  0.48150902    -0.12800
F409        F  0.44998170  0.67522061  0.43093519    -0.13300
C410        C  0.45613034  0.62760123  0.44551308     0.16400
C411        C  0.46035886  0.61812216  0.43474123     0.25900
C412        C  0.44778553  0.60239393  0.41596129    -0.40400
C413        C  0.43066540  0.59598477  0.40940836     0.32800
C414        C  0.42647951  0.60541831  0.42016719     0.14500
F415        F  0.46856076  0.64284895  0.46326202    -0.12800
F416        F  0.41784375  0.58046711  0.39258437    -0.13300
F417        F  0.47699698  0.62475657  0.44143983    -0.15600
F418        F  0.41007812  0.59914832  0.41236609    -0.14100
F419        F  0.45870532  0.65726318  0.41468728    -0.14100
F420        F  0.40133527  0.62401074  0.50071138    -0.15600
C421        C  0.43637142  0.70478536  0.43873367     0.14500
C422        C  0.45122940  0.71771783  0.45897644     0.01500
C423        C  0.45888040  0.71282450  0.47770981     0.16400
C424        C  0.45039914  0.69473518  0.47909439     0.25900
C425        C  0.43271123  0.68058760  0.46536135    -0.40500
C426        C  0.42679296  0.68652666  0.44264502     0.32900
C427        C  0.45321741  0.73263858  0.46934158     0.01500
F428        F  0.47353360  0.72514944  0.49724625    -0.12800
F429        F  0.41144366  0.67539805  0.42474642    -0.13300
C430        C  0.43994162  0.72774882  0.49109411     0.16400
C431        C  0.43604568  0.73804235  0.49256023     0.25900
C432        C  0.44640093  0.75478665  0.47446050    -0.40400
C433        C  0.46195712  0.76118486  0.45712821     0.32800
C434        C  0.46469281  0.74971583  0.45312443     0.14500
F435        F  0.42906422  0.71163093  0.50803966    -0.12800
F436        F  0.47431898  0.77811165  0.44348851    -0.13300
F437        F  0.42085416  0.73052907  0.50964857    -0.15600
F438        F  0.47811341  0.75502483  0.43269322    -0.14100
F439        F  0.42927639  0.70946638  0.41893480    -0.14100
F440        F  0.45848995  0.69080052  0.49756428    -0.15600
C441        C  0.33433084  0.62323187  0.46134868     0.14500
C442        C  0.35248437  0.63615970  0.45080558     0.01500
C443        C  0.36048202  0.65365542  0.44285788     0.16400
C444        C  0.35130134  0.65873739  0.44809814     0.25900
C445        C  0.33272442  0.64594270  0.45832504    -0.40500
C446        C  0.32453839  0.62794189  0.46467953     0.32900
C447        C  0.36485918  0.63366860  0.45687875     0.01500
F448        F  0.37834853  0.66676255  0.43466144    -0.12800
F449        F  0.30729244  0.61506674  0.47641403    -0.13300
C450        C  0.37608951  0.63690410  0.43133978     0.16400
C451        C  0.39280651  0.64271796  0.43945304     0.25900
C452        C  0.39946639  0.64769446  0.47269733    -0.40400
C453        C  0.38582301  0.63935434  0.49790947     0.32800
C454        C  0.36904976  0.63311823  0.49007420     0.14500
F455        F  0.37179367  0.63629356  0.39867711    -0.12800
F456        F  0.38828991  0.63700498  0.53023201    -0.13300
F457        F  0.40361463  0.64627505  0.41418630    -0.15600
F458        F  0.35770743  0.62832373  0.51542012    -0.14100
F459        F  0.32639978  0.60628547  0.47039053    -0.14100
F460        F  0.36206662  0.67678990  0.44820114    -0.15600
C461        C  0.29939826  0.63252443  0.55717539     0.14500
C462        C  0.31450636  0.64307125  0.57812006     0.01500
C463        C  0.33178242  0.65372334  0.56400646     0.16400
C464        C  0.33410290  0.65558850  0.52924730     0.25900
C465        C  0.31913538  0.64698787  0.50736208    -0.40500
C466        C  0.30156395  0.63380016  0.52239223     0.32900
C467        C  0.31257707  0.64403279  0.61436149     0.01500
F468        F  0.34657961  0.66294607  0.58402370    -0.12800
F469        F  0.28627151  0.62154980  0.50426637    -0.13300
C470        C  0.30251799  0.62871224  0.63561938     0.16400
C471        C  0.30255464  0.63038178  0.67029931     0.25900
C472        C  0.31286978  0.64756515  0.68505581    -0.40400
C473        C  0.32277367  0.66287912  0.66250811     0.32800
C474        C  0.32196375  0.66087341  0.62797709     0.14500
F475        F  0.29349782  0.61223758  0.62306213    -0.12800
F476        F  0.33560706  0.68015690  0.67258585    -0.13300
F477        F  0.29329735  0.61523311  0.69001658    -0.15600
F478        F  0.33162506  0.67587021  0.60767597    -0.14100
F479        F  0.28244379  0.62129471  0.57031969    -0.14100
F480        F  0.35125616  0.66695789  0.51712708    -0.15600
C481        C  0.44967936  0.78580307  0.63774644     0.14500
C482        C  0.44090863  0.76966212  0.62169107     0.01500
C483        C  0.43073209  0.75359640  0.64085230     0.16400
C484        C  0.42749646  0.75326079  0.67479275     0.25900
C485        C  0.43422447  0.76907098  0.69062809    -0.40500
C486        C  0.44699080  0.78569240  0.67198124     0.32900
C487        C  0.44074974  0.76912655  0.58471071     0.01500
F488        F  0.42316451  0.73796834  0.62621017    -0.12800
F489        F  0.45737189  0.80203278  0.68627810    -0.13300
C490        C  0.45670181  0.77893926  0.56611944     0.16400
C491        C  0.45599400  0.77761648  0.53121053     0.25900
C492        C  0.43924385  0.76655251  0.51362632    -0.40400
C493        C  0.42323639  0.75660837  0.53335057     0.32800
C494        C  0.42416113  0.75827519  0.56800088     0.14500
F495        F  0.47295168  0.78939492  0.58183910    -0.12800
F496        F  0.40636993  0.74355541  0.52076247    -0.13300
F497        F  0.47180994  0.78712510  0.51432741    -0.15600
F498        F  0.40851782  0.74865276  0.58560833    -0.14100
F499        F  0.46038480  0.80170054  0.62000272    -0.14100
F500        F  0.41653361  0.73705992  0.69148842    -0.15600
C501        C  0.37643107  0.73149066  0.70940379     0.14500
C502        C  0.36960509  0.72579006  0.74217628     0.01500
C503        C  0.38099678  0.73692440  0.76871080     0.16400
C504        C  0.39963312  0.75152637  0.76315298     0.25900
C505        C  0.40730229  0.75468379  0.73104612    -0.40500
C506        C  0.39496666  0.74606937  0.70368967     0.32900
C507        C  0.35352219  0.70629039  0.74836828     0.01500
F508        F  0.37448717  0.73223670  0.80058408    -0.12800
F509        F  0.40039201  0.75134658  0.67130668    -0.13300
C510        C  0.33655228  0.69742004  0.73457314     0.16400
C511        C  0.32370674  0.67863713  0.73024357     0.25900
C512        C  0.32840237  0.66868093  0.73614069    -0.40400
C513        C  0.34466532  0.67766553  0.75438249     0.32800
C514        C  0.35659381  0.69591936  0.76102986     0.14500
F515        F  0.33291253  0.70707796  0.72315911    -0.12800
F516        F  0.34975085  0.66944345  0.76623547    -0.13300
F517        F  0.30771776  0.67074941  0.71561611    -0.15600
F518        F  0.37212226  0.70376644  0.77752875    -0.14100
F519        F  0.36543722  0.72171777  0.68290116    -0.14100
F520        F  0.41042508  0.76063754  0.79018552    -0.15600
C521        C  0.42755112  0.64101354  0.75398701     0.14500
C522        C  0.44366965  0.65037365  0.77178632     0.01500
C523        C  0.45418306  0.66847548  0.77936971     0.16400
C524        C  0.44882101  0.67722487  0.76911030     0.25900
C525        C  0.43220498  0.66782696  0.75164648    -0.40500
C526        C  0.42200132  0.64954181  0.74380647     0.32900
C527        C  0.44935429  0.64108792  0.78246875     0.01500
F528        F  0.47021568  0.67803216  0.79553553    -0.12800
F529        F  0.40648146  0.63975756  0.72579022    -0.13300
C530        C  0.45209056  0.63344629  0.75868834     0.16400
C531        C  0.45556814  0.62304947  0.76900136     0.25900
C532        C  0.45636192  0.62009821  0.80336832    -0.40400
C533        C  0.45463477  0.62865832  0.82702095     0.32800
C534        C  0.45111284  0.63897296  0.81666377     0.14500
F535        F  0.45111650  0.63584622  0.72540663    -0.12800
F536        F  0.45635819  0.62709436  0.86034182    -0.13300
F537        F  0.45728980  0.61520861  0.74534316    -0.15600
F538        F  0.44872718  0.64633936  0.84019075    -0.14100
F539        F  0.41700969  0.62340545  0.74651787    -0.14100
F540        F  0.46087078  0.69520181  0.77446721    -0.15600
C541        C  0.43228980  0.66207145  0.57566304     0.14500
C542        C  0.42675502  0.66976464  0.58985524     0.01500
C543        C  0.42046908  0.67544988  0.56874301     0.16400
C544        C  0.41868341  0.67250551  0.53438323     0.25900
C545        C  0.42318638  0.66375444  0.51956573    -0.40500
C546        C  0.43105812  0.65954321  0.54103263     0.32900
C547        C  0.42658327  0.67105714  0.62677022     0.01500
F548        F  0.41572261  0.68364822  0.58154187    -0.12800
F549        F  0.43839150  0.65372020  0.52923633    -0.13300
C550        C  0.44220748  0.67999067  0.64609884     0.16400
C551        C  0.44176729  0.68129312  0.68083573     0.25900
C552        C  0.42586316  0.67455408  0.69727328    -0.40400
C553        C  0.40982209  0.66415906  0.67742435     0.32800
C554        C  0.41038364  0.66283234  0.64289839     0.14500
F555        F  0.45811801  0.68801838  0.63120860    -0.12800
F556        F  0.39310094  0.65396279  0.69079092    -0.13300
F557        F  0.45738812  0.69034669  0.69817175    -0.15600
F558        F  0.39472777  0.65282878  0.62518418    -0.14100
F559        F  0.43863732  0.65663245  0.59550501    -0.14100
F560        F  0.41154294  0.67738438  0.51553637    -0.15600
C561        C  0.45964156  0.76070649  0.75312945     0.14500
C562        C  0.44725345  0.74264650  0.76486816     0.01500
C563        C  0.42951616  0.73412204  0.77162216     0.16400
C564        C  0.42350584  0.74227676  0.76254402     0.25900
C565        C  0.43530934  0.76002146  0.74770087    -0.40500
C566        C  0.45386429  0.76935188  0.74514366     0.32900
C567        C  0.45064280  0.73090494  0.76155917     0.01500
F568        F  0.41696663  0.71654327  0.78235386    -0.12800
F569        F  0.46617207  0.78632815  0.73152388    -0.13300
C570        C  0.44520343  0.71821907  0.78695618     0.16400
C571        C  0.43971727  0.70188695  0.77900727     0.25900
C572        C  0.43952685  0.69772316  0.74525003    -0.40400
C573        C  0.44819939  0.71222969  0.72106954     0.32800
C574        C  0.45369657  0.72846517  0.72939802     0.14500
F575        F  0.44297891  0.72061705  0.81882565    -0.12800
F576        F  0.44885902  0.71037162  0.68795622    -0.13300
F577        F  0.43236101  0.68912517  0.80381682    -0.15600
F578        F  0.45920635  0.74055418  0.70421747    -0.14100
F579        F  0.47706387  0.76952415  0.74682382    -0.14100
F580        F  0.40542087  0.73105910  0.76396545    -0.15600
C581        C  0.38403909  0.66934567  0.74450930     0.14500
C582        C  0.37076573  0.65164097  0.75774381     0.01500
C583        C  0.37644536  0.64371624  0.77186390     0.16400
C584        C  0.39479726  0.65269957  0.76940369     0.25900
C585        C  0.40723199  0.66861858  0.74863366    -0.40500
C586        C  0.40139379  0.67708678  0.73793360     0.32900
C587        C  0.35153659  0.64131635  0.74898184     0.01500
F588        F  0.36420930  0.62705530  0.78675358    -0.12800
F589        F  0.41183625  0.69216908  0.71793983    -0.13300
C590        C  0.34848360  0.64260501  0.71549385     0.16400
C591        C  0.33722944  0.64505208  0.70754735     0.25900
C592        C  0.32450744  0.64115321  0.73126864    -0.40400
C593        C  0.32360410  0.63331335  0.76249043     0.32800
C594        C  0.33803790  0.63502011  0.77230575     0.14500
F595        F  0.35981550  0.64619102  0.69136542    -0.12800
F596        F  0.30978150  0.62503499  0.78434844    -0.13300
F597        F  0.34074026  0.65312032  0.67711632    -0.15600
F598        F  0.33941361  0.63174953  0.80472759    -0.14100
F599        F  0.37945149  0.67819888  0.73308966    -0.14100
F600        F  0.39983491  0.64539268  0.78684990    -0.15600
C601        C  0.62670921  0.41821567  0.42459568     0.14500
C602        C  0.63712841  0.43677115  0.42470200     0.01500
C603        C  0.65523848  0.44861514  0.43464414     0.16400
C604        C  0.66257076  0.44199968  0.44634097     0.25900
C605        C  0.65193559  0.42314042  0.44888102    -0.40500
C606        C  0.63385813  0.41138823  0.43651244     0.32900
C607        C  0.62906969  0.44386294  0.41530219     0.01500
F608        F  0.66574616  0.46671215  0.43407565    -0.12800
F609        F  0.62219574  0.39315449  0.43878904    -0.13300
C610        C  0.62627746  0.45124741  0.43964776     0.16400
C611        C  0.61996095  0.45921353  0.43036572     0.25900
C612        C  0.61656983  0.46013265  0.39647988    -0.40400
C613        C  0.61871196  0.45205816  0.37238699     0.32800
C614        C  0.62484106  0.44396375  0.38176313     0.14500
F615        F  0.63003598  0.45105627  0.47235805    -0.12800
F616        F  0.61505505  0.45216055  0.33955787    -0.13300
F617        F  0.61819032  0.46693472  0.45423711    -0.15600
F618        F  0.62732405  0.43682210  0.35787178    -0.14100
F619        F  0.60908987  0.40650519  0.41504315    -0.14100
F620        F  0.67993970  0.45419300  0.45721524    -0.15600
C621        C  0.62124081  0.32929922  0.46015021     0.14500
C622        C  0.63485829  0.34722453  0.47070714     0.01500
C623        C  0.64983857  0.35262074  0.48784130     0.16400
C624        C  0.65117268  0.34045736  0.49518265     0.25900
C625        C  0.63814321  0.32245181  0.48354520    -0.40500
C626        C  0.62277529  0.31692420  0.46651863     0.32900
C627        C  0.63350856  0.36053157  0.46783583     0.01500
F628        F  0.66327059  0.36990856  0.49814262    -0.12800
F629        F  0.60878341  0.29952772  0.45765980    -0.13300
C630        C  0.63252082  0.36648369  0.49770040     0.16400
C631        C  0.63981711  0.38392622  0.49986235     0.25900
C632        C  0.64669565  0.39557748  0.47088937    -0.40400
C633        C  0.64524550  0.38820201  0.43986796     0.32800
C634        C  0.63913312  0.37112348  0.43856226     0.14500
F635        F  0.62723036  0.35641843  0.52639948    -0.12800
F636        F  0.65120756  0.39819118  0.41096034    -0.13300
F637        F  0.64231865  0.38964889  0.53148295    -0.15600
F638        F  0.64037281  0.36571461  0.40929110    -0.14100
F639        F  0.60626677  0.32366065  0.44461266    -0.14100
F640        F  0.66590592  0.34665709  0.51283610    -0.15600
C641        C  0.72231906  0.37186566  0.50062245     0.14500
C642        C  0.71760828  0.36348358  0.46967886     0.01500
C643        C  0.72877640  0.37402974  0.44196844     0.16400
C644        C  0.74195370  0.39289176  0.44339089     0.25900
C645        C  0.74445159  0.40182385  0.47297453    -0.40500
C646        C  0.73605554  0.39075001  0.50261948     0.32900
C647        C  0.69856445  0.34619776  0.46422237     0.01500
F648        F  0.72515201  0.36616167  0.41207824    -0.12800
F649        F  0.74063474  0.39768859  0.53367537    -0.13300
C650        C  0.69015639  0.33008970  0.48233464     0.16400
C651        C  0.67111188  0.31653812  0.48567776     0.25900
C652        C  0.66099081  0.32056930  0.47590839    -0.40400
C653        C  0.66910445  0.33426484  0.45033268     0.32800
C654        C  0.68764504  0.34699624  0.44511864     0.14500
F655        F  0.70031770  0.32813533  0.49885254    -0.12800
F656        F  0.65963649  0.33650588  0.43170446    -0.13300
F657        F  0.66323162  0.30123435  0.50381194    -0.15600
F658        F  0.69501097  0.36130405  0.42418865    -0.14100
F659        F  0.71247959  0.36188974  0.52854600    -0.14100
F660        F  0.75038179  0.40231009  0.41423503    -0.15600
C661        C  0.74308431  0.44849870  0.44885529     0.14500
C662        C  0.72478208  0.43435817  0.44044105     0.01500
C663        C  0.71848970  0.41781114  0.43207700     0.16400
C664        C  0.72910884  0.41423924  0.43762207     0.25900
C665        C  0.74700798  0.42755385  0.45097981    -0.40500
C666        C  0.75429202  0.44536621  0.45258285     0.32900
C667        C  0.71094640  0.43442072  0.44935803     0.01500
F668        F  0.70091174  0.40405461  0.42294733    -0.12800
F669        F  0.77167910  0.45928612  0.46238939    -0.13300
C670        C  0.70312952  0.43744163  0.42537937     0.16400
C671        C  0.68698219  0.43284574  0.43257611     0.25900
C672        C  0.67797555  0.42462508  0.46400268    -0.40400
C673        C  0.68616124  0.42149967  0.48738577     0.32800
C674        C  0.70258207  0.42698816  0.48067437     0.14500
F675        F  0.71055816  0.44386882  0.39427920    -0.12800
F676        F  0.67810060  0.41275921  0.51716266    -0.13300
F677        F  0.67959200  0.43505839  0.40749069    -0.15600
F678        F  0.70965712  0.42364076  0.50418980    -0.14100
F679        F  0.74969760  0.46488954  0.45637646    -0.14100
F680        F  0.72047705  0.39699181  0.43274867    -0.15600
C681        C  0.66240958  0.47192042  0.73055533     0.14500
C682        C  0.65067823  0.46474424  0.75788522     0.01500
C683        C  0.64481631  0.44940730  0.77505345     0.16400
C684        C  0.64984125  0.44072194  0.76409285     0.25900
C685        C  0.66061099  0.44697246  0.73474594    -0.40500
C686        C  0.66763827  0.46345125  0.71956591     0.32900
C687        C  0.64493496  0.47354884  0.76921697     0.01500
F688        F  0.63414874  0.44280076  0.80269142    -0.12800
F689        F  0.67900269  0.47099592  0.69281465    -0.13300
C690        C  0.63240944  0.47224465  0.75053844     0.16400
C691        C  0.62619824  0.47971671  0.76239925     0.25900
C692        C  0.63254745  0.48872277  0.79307620    -0.40400
C693        C  0.64572153  0.49061887  0.81091888     0.32800
C694        C  0.65169880  0.48296605  0.79921633     0.14500
F695        F  0.62574919  0.46319036  0.72136474    -0.12800
F696        F  0.65308830  0.50010291  0.83957116    -0.13300
F697        F  0.61340916  0.47741722  0.74461384    -0.15600
F698        F  0.66415677  0.48476297  0.81719841    -0.14100
F699        F  0.66889129  0.48724958  0.71451663    -0.14100
F700        F  0.64468081  0.42678075  0.78350080    -0.15600
C701        C  0.64788067  0.43243400  0.62937702     0.14500
C702        C  0.65531065  0.42727189  0.61240413     0.01500
C703        C  0.66287289  0.42219629  0.63083155     0.16400
C704        C  0.66493176  0.42426416  0.66539775     0.25900
C705        C  0.66011163  0.43223696  0.68255526    -0.40500
C706        C  0.64966550  0.43431802  0.66421624     0.32900
C707        C  0.65598426  0.42767548  0.57547547     0.01500
F708        F  0.66909104  0.41599205  0.61501714    -0.12800
F709        F  0.64061907  0.43759898  0.67935608    -0.13300
C710        C  0.67281052  0.43889017  0.55938571     0.16400
C711        C  0.67393448  0.43671482  0.52563958     0.25900
C712        C  0.65810992  0.42233964  0.50758934    -0.40400
C713        C  0.64122011  0.41376333  0.52245307     0.32800
C714        C  0.64018033  0.41596395  0.55640523     0.14500
F715        F  0.68829560  0.45162033  0.57682806    -0.12800
F716        F  0.62546289  0.40126208  0.50567382    -0.13300
F717        F  0.69063028  0.44872102  0.51135295    -0.15600
F718        F  0.62369798  0.40549860  0.57123601    -0.14100
F719        F  0.63932647  0.43616088  0.61210325    -0.14100
F720        F  0.67350946  0.42027227  0.68147215    -0.15600
C721        C  0.62344630  0.30360589  0.58070194     0.14500
C722        C  0.63745269  0.30925223  0.60235090     0.01500
C723        C  0.65218122  0.31310685  0.58796892     0.16400
C724        C  0.65499402  0.31562812  0.55339597     0.25900
C725        C  0.64073956  0.30914153  0.53098282    -0.40500
C726        C  0.62444208  0.30209314  0.54624970     0.32900
C727        C  0.63817206  0.31346461  0.63850500     0.01500
F728        F  0.66478141  0.31577306  0.60742564    -0.12800
F729        F  0.60973072  0.29488051  0.52733237    -0.13300
C730        C  0.62260841  0.30332541  0.65904030     0.16400
C731        C  0.62362436  0.30930234  0.69108285     0.25900
C732        C  0.64048423  0.32469663  0.70493037    -0.40400
C733        C  0.65611696  0.33210919  0.68647230     0.32800
C734        C  0.65490250  0.32832228  0.65291454     0.14500
F735        F  0.60635446  0.28761054  0.64844442    -0.12800
F736        F  0.67296491  0.34355219  0.69994780    -0.13300
F737        F  0.60795502  0.30022509  0.70799599    -0.15600
F738        F  0.67037699  0.33997781  0.63450483    -0.14100
F739        F  0.60914897  0.30044967  0.59207999    -0.14100
F740        F  0.67236607  0.32629846  0.54375470    -0.15600
C741        C  0.65624136  0.39621241  0.75854156     0.14500
C742        C  0.63783924  0.38201865  0.75088337     0.01500
C743        C  0.62821101  0.38618497  0.73946097     0.16400
C744        C  0.63710992  0.40422181  0.73358936     0.25900
C745        C  0.65622409  0.41878888  0.73759746    -0.40500
C746        C  0.66538938  0.41423148  0.75184442     0.32900
C747        C  0.62992417  0.36329447  0.75020175     0.01500
F748        F  0.61030676  0.37271702  0.73236333    -0.12800
F749        F  0.68350656  0.42654368  0.75637617    -0.13300
C750        C  0.63019303  0.35539641  0.77897278     0.16400
C751        C  0.62978464  0.34168393  0.77616303     0.25900
C752        C  0.62993303  0.33609640  0.74414369    -0.40400
C753        C  0.62554462  0.34135563  0.71629742     0.32800
C754        C  0.62594659  0.35508576  0.71932168     0.14500
F755        F  0.63295055  0.36238312  0.80951063    -0.12800
F756        F  0.62364268  0.33555422  0.68497276    -0.13300
F757        F  0.63219546  0.33604637  0.80458394    -0.15600
F758        F  0.62489281  0.36199813  0.69111149    -0.14100
F759        F  0.66593601  0.39255251  0.76958157    -0.14100
F760        F  0.62717182  0.40735684  0.72120486    -0.15600
C761        C  0.77974227  0.46639217  0.62135287     0.14500
C762        C  0.76560595  0.44926540  0.60758482     0.01500
C763        C  0.75240365  0.43494949  0.62937987     0.16400
C764        C  0.75214839  0.43764439  0.66311859     0.25900
C765        C  0.76551567  0.45516419  0.67751980    -0.40500
C766        C  0.78016757  0.46899822  0.65600402     0.32900
C767        C  0.76460590  0.44527675  0.57136270     0.01500
F768        F  0.74003018  0.41770998  0.61839076    -0.12800
F769        F  0.79516446  0.48512464  0.66862156    -0.13300
C770        C  0.77951317  0.45063861  0.55432147     0.16400
C771        C  0.77762623  0.44460492  0.52195954     0.25900
C772        C  0.76017323  0.43102595  0.50697581    -0.40400
C773        C  0.74546321  0.42642197  0.52419247     0.32800
C774        C  0.74784263  0.43404705  0.55475741     0.14500
F775        F  0.79601616  0.46145130  0.56913985    -0.12800
F776        F  0.72843625  0.41409629  0.51160511    -0.13300
F777        F  0.79326973  0.45288539  0.50575742    -0.15600
F778        F  0.73339089  0.42984030  0.56885152    -0.14100
F779        F  0.79318217  0.48068348  0.60147099    -0.14100
F780        F  0.73968731  0.42216563  0.68144601    -0.15600
C781        C  0.72912550  0.41162114  0.76399024     0.14500
C782        C  0.71329225  0.40674472  0.75235040     0.01500
C783        C  0.71495437  0.41994637  0.73567563     0.16400
C784        C  0.73159881  0.43565688  0.72338810     0.25900
C785        C  0.74791668  0.44054550  0.73259821    -0.40500
C786        C  0.74626289  0.42882598  0.75615459     0.32900
C787        C  0.69547881  0.38758998  0.75124467     0.01500
F788        F  0.70006197  0.41665414  0.72747951    -0.12800
F789        F  0.76079127  0.43335240  0.77118776    -0.13300
C790        C  0.68768015  0.37547068  0.77897799     0.16400
C791        C  0.67083559  0.35744551  0.77596383     0.25900
C792        C  0.66107346  0.35132405  0.74525063    -0.40400
C793        C  0.66850386  0.36454259  0.71912984     0.32800
C794        C  0.68584184  0.38149674  0.72104184     0.14500
F795        F  0.69603698  0.38113572  0.80922868    -0.12800
F796        F  0.65961309  0.36075067  0.68990176    -0.13300
F797        F  0.66391460  0.34647737  0.80366908    -0.15600
F798        F  0.69328709  0.39197066  0.69254968    -0.14100
F799        F  0.72817265  0.39951538  0.78141998    -0.14100
F800        F  0.73156155  0.44560131  0.70046771    -0.15600
C801        C  0.74708789  0.47303422  0.76163983     0.14500
C802        C  0.74347676  0.47930494  0.73473621     0.01500
C803        C  0.75573109  0.48776191  0.70761381     0.16400
C804        C  0.76538201  0.48320745  0.70094381     0.25900
C805        C  0.76554686  0.47283961  0.72484501    -0.40500
C806        C  0.75968731  0.47186967  0.75768155     0.32900
C807        C  0.72521056  0.47301338  0.73065998     0.01500
F808        F  0.75660733  0.49852139  0.68524916    -0.12800
F809        F  0.76209414  0.46498912  0.78380085    -0.13300
C810        C  0.71474588  0.46978815  0.75810535     0.16400
C811        C  0.69600335  0.45896162  0.75460606     0.25900
C812        C  0.68732265  0.45195571  0.72305761    -0.40400
C813        C  0.69909155  0.45954525  0.69496151     0.32800
C814        C  0.71696621  0.46807535  0.69875385     0.14500
F815        F  0.72243530  0.47686225  0.78846575    -0.12800
F816        F  0.69389513  0.45934101  0.66334249    -0.13300
F817        F  0.68617681  0.45445375  0.78255208    -0.15600
F818        F  0.72562470  0.47047547  0.67055262    -0.14100
F819        F  0.73687038  0.46554154  0.78992488    -0.14100
F820        F  0.77326176  0.48820144  0.67046818    -0.15600
C821        C  0.27749422  0.63670152  0.44547043     0.14500
C822        C  0.26936411  0.62250177  0.42359240     0.01500
C823        C  0.27932978  0.61882646  0.41273920     0.16400
C824        C  0.29683166  0.62858388  0.42504126     0.25900
C825        C  0.30439004  0.64164475  0.45012235    -0.40500
C826        C  0.29462875  0.64612662  0.45844012     0.32900
C827        C  0.25075690  0.61227428  0.41146694     0.01500
F828        F  0.27203610  0.60561039  0.39042197    -0.12800
F829        F  0.30122970  0.65905075  0.48098751    -0.13300
C830        C  0.24750083  0.61232924  0.37719844     0.16400
C831        C  0.23080735  0.60559013  0.36641568     0.25900
C832        C  0.21712583  0.59896294  0.38977891    -0.40400
C833        C  0.21997725  0.59774214  0.42389002     0.32800
C834        C  0.23661442  0.60425327  0.43456930     0.14500
F835        F  0.26087885  0.62001117  0.35430852    -0.12800
F836        F  0.20724506  0.59149762  0.44728404    -0.13300
F837        F  0.22827186  0.60607110  0.33305613    -0.15600
F838        F  0.23925967  0.60354725  0.46779647    -0.14100
F839        F  0.26872399  0.64144842  0.45457702    -0.14100
F840        F  0.30621826  0.62538042  0.41135702    -0.15600
C841        C  0.16228255  0.63891209  0.07511768     0.14500
C842        C  0.16665690  0.63209536  0.09857694     0.01500
C843        C  0.17124458  0.62301706  0.08748344     0.16400
C844        C  0.17118396  0.62047188  0.05336188     0.25900
C845        C  0.16647740  0.62695343  0.02968273    -0.40500
C846        C  0.16218710  0.63635364  0.04079552     0.32900
C847        C  0.16564739  0.63341028  0.13490372     0.01500
F848        F  0.17515423  0.61602650  0.10994481    -0.12800
F849        F  0.15808098  0.64318472  0.01842601    -0.13300
C850        C  0.14882606  0.62111845  0.15131196     0.16400
C851        C  0.14797879  0.61926123  0.18630816     0.25900
C852        C  0.16403612  0.62978747  0.20531045    -0.40400
C853        C  0.18079336  0.64314917  0.18876269     0.32800
C854        C  0.18158183  0.64482898  0.15381885     0.14500
F855        F  0.13328465  0.60990491  0.13327051    -0.12800
F856        F  0.19649902  0.65414018  0.20634568    -0.13300
F857        F  0.13153732  0.60610398  0.20109821    -0.15600
F858        F  0.19795606  0.65692693  0.13828370    -0.14100
F859        F  0.15807055  0.64795319  0.08549512    -0.14100
F860        F  0.17481184  0.61082955  0.04370936    -0.15600
C861        C  0.25033671  0.63208066  0.80980119     0.14500
C862        C  0.24885026  0.61936149  0.79307144     0.01500
C863        C  0.23159586  0.60173528  0.78947708     0.16400
C864        C  0.21614346  0.59693326  0.80234692     0.25900
C865        C  0.21768251  0.60961428  0.81938718    -0.40500
C866        C  0.23495188  0.62724049  0.82297637     0.32900
C867        C  0.26499332  0.62495910  0.77663142     0.01500
F868        F  0.22973678  0.58914959  0.77348327    -0.12800
F869        F  0.23689453  0.64005632  0.83814258    -0.13300
C870        C  0.28085264  0.63311296  0.79449795     0.16400
C871        C  0.29653708  0.63996199  0.77789214     0.25900
C872        C  0.29688402  0.63838689  0.74256206    -0.40400
C873        C  0.28056547  0.63058038  0.72507787     0.32800
C874        C  0.26506763  0.62375174  0.74195975     0.14500
F875        F  0.28141312  0.63510592  0.82812457    -0.12800
F876        F  0.27948875  0.63123561  0.69130580    -0.13300
F877        F  0.31189658  0.64968873  0.79640402    -0.15600
F878        F  0.25041763  0.61733948  0.72364688    -0.14100
F879        F  0.26661055  0.64944072  0.81219066    -0.14100
F880        F  0.19975068  0.57976763  0.79887505    -0.15600
C881        C  0.00477225  0.48763970  0.41451670     0.14500
C882        C  0.01777945  0.50659575  0.41431937     0.01500
C883        C  0.01208688  0.51557021  0.41235056     0.16400
C884        C  0.99377300  0.50580733  0.40795707     0.25900
C885        C  0.98095286  0.48694745  0.40499395    -0.40500
C886        C  0.98646198  0.47787211  0.40961452     0.32900
C887        C  0.03710228  0.51704885  0.40885774     0.01500
F888        F  0.02448659  0.53391149  0.41193623    -0.12800
F889        F  0.97420894  0.45960855  0.40759012    -0.13300
C890        C  0.04454922  0.52492622  0.37704803     0.16400
C891        C  0.06291389  0.53583655  0.37113248     0.25900
C892        C  0.07439205  0.53934151  0.39708625    -0.40400
C893        C  0.06677904  0.53063367  0.42857733     0.32800
C894        C  0.04816969  0.51950195  0.43442382     0.14500
F895        F  0.03395183  0.52215065  0.35161833    -0.12800
F896        F  0.07743990  0.53358541  0.45401668    -0.13300
F897        F  0.06944300  0.54296464  0.33976576    -0.15600
F898        F  0.04109853  0.51167616  0.46520061    -0.14100
F899        F  0.00997540  0.47871157  0.41656819    -0.14100
F900        F  0.98886482  0.51493043  0.40322581    -0.15600
C901        C  0.81971671  0.43623050  0.38577597     0.14500
C902        C  0.82189898  0.44618822  0.41218324     0.01500
C903        C  0.83906840  0.45974920  0.42644225     0.16400
C904        C  0.85398291  0.46339572  0.41430717     0.25900
C905        C  0.85187131  0.45339518  0.38785425    -0.40500
C906        C  0.83452585  0.43971332  0.37377510     0.32900
C907        C  0.80594128  0.44125849  0.42690957     0.01500
F908        F  0.84131471  0.46937608  0.45226531    -0.12800
F909        F  0.83164094  0.42910566  0.34938301    -0.13300
C910        C  0.79882121  0.43125932  0.45698877     0.16400
C911        C  0.78343638  0.42594517  0.47096008     0.25900
C912        C  0.77466195  0.43068770  0.45544318    -0.40400
C913        C  0.78193715  0.44060448  0.42446643     0.32800
C914        C  0.79742443  0.44581699  0.41060055     0.14500
F915        F  0.80660623  0.42626194  0.47256530    -0.12800
F916        F  0.77384590  0.44457708  0.40627731    -0.13300
F917        F  0.77714406  0.41621928  0.50029495    -0.15600
F918        F  0.80397336  0.45509402  0.38080243    -0.14100
F919        F  0.80307657  0.42266251  0.37245445    -0.14100
F920        F  0.87049447  0.47687904  0.42808200    -0.15600
C921        C  0.01740831  0.53646209  0.78991371     0.14500
C922        C  0.02324592  0.52771607  0.78681481     0.01500
C923        C  0.01050714  0.50925196  0.77968473     0.16400
C924        C  0.99203192  0.49937939  0.77822694     0.25900
C925        C  0.98605412  0.50788999  0.78337542    -0.40500
C926        C  0.99895727  0.52665856  0.78793562     0.32900
C927        C  0.04183066  0.53697739  0.79711080     0.01500
F928        F  0.01582771  0.50051117  0.77682106    -0.12800
F929        F  0.99361353  0.53518640  0.79377773    -0.13300
C930        C  0.04613609  0.53974838  0.83129887     0.16400
C931        C  0.06348195  0.54845987  0.84212395     0.25900
C932        C  0.07713559  0.55492573  0.81888527    -0.40400
C933        C  0.07266434  0.55169307  0.78453993     0.32800
C934        C  0.05508560  0.54270854  0.77376431     0.14500
F935        F  0.03336189  0.53378994  0.85438817    -0.12800
F936        F  0.08540339  0.55775067  0.76132118    -0.13300
F937        F  0.06671948  0.55016968  0.87560697    -0.15600
F938        F  0.05110212  0.53994682  0.74057520    -0.14100
F939        F  0.02949317  0.55426977  0.79719286    -0.14100
F940        F  0.97985973  0.48128208  0.77362636    -0.15600
C941        C  0.90659073  0.45609038  0.12079210     0.14500
C942        C  0.90495280  0.44335704  0.10393021     0.01500
C943        C  0.90331941  0.43049564  0.12232608     0.16400
C944        C  0.90345190  0.43047446  0.15745817     0.25900
C945        C  0.90493694  0.44315237  0.17435100    -0.40500
C946        C  0.90648501  0.45594237  0.15572834     0.32900
C947        C  0.90484226  0.44361514  0.06705505     0.01500
F948        F  0.90154026  0.41798627  0.10621907    -0.12800
F949        F  0.90825683  0.46855252  0.17138393    -0.13300
C950        C  0.92119300  0.45610929  0.04919708     0.16400
C951        C  0.92106738  0.45766157  0.01428259     0.25900
C952        C  0.90453808  0.44693749  0.99694319    -0.40400
C953        C  0.88818783  0.43426294  0.01488830     0.32800
C954        C  0.88835065  0.43253238  0.04974363     0.14500
F955        F  0.93722632  0.46720244  0.06576233    -0.12800
F956        F  0.87207321  0.42365525  0.99864080    -0.13300
F957        F  0.93703604  0.47036983  0.99768132    -0.15600
F958        F  0.87243040  0.42050642  0.06677530    -0.14100
F959        F  0.90819150  0.46861514  0.10330903    -0.14100
F960        F  0.90155862  0.41777503  0.17494078    -0.15600
C961        C  0.82600545  0.46187044  0.79258271     0.14500
C962        C  0.82963565  0.47439151  0.76896871     0.01500
C963        C  0.84752883  0.48888487  0.75786530     0.16400
C964        C  0.86152794  0.49054798  0.76964683     0.25900
C965        C  0.85784874  0.47778539  0.79292855    -0.40500
C966        C  0.83987594  0.46346699  0.80434475     0.32900
C967        C  0.81439860  0.47137461  0.75446700     0.01500
F968        F  0.85134676  0.50114768  0.73497294    -0.12800
F969        F  0.83543763  0.45046340  0.82589488    -0.13300
C970        C  0.81243670  0.48316721  0.76044210     0.16400
C971        C  0.79736486  0.47954981  0.74817842     0.25900
C972        C  0.78332473  0.46346909  0.73035007    -0.40400
C973        C  0.78614916  0.45220106  0.72346871     0.32800
C974        C  0.80131442  0.45608346  0.73543041     0.14500
F975        F  0.82503103  0.49813428  0.77878060    -0.12800
F976        F  0.77378544  0.43680153  0.70613630    -0.13300
F977        F  0.79706531  0.49215929  0.75385348    -0.15600
F978        F  0.80316784  0.44469306  0.72857435    -0.14100
F979        F  0.80885578  0.44787145  0.80398954    -0.14100
F980        F  0.87867150  0.50473910  0.75854986    -0.15600
C981        C  0.59744924  0.22718562  0.42988951     0.14500
C982        C  0.61373317  0.24558163  0.42816762     0.01500
C983        C  0.62896465  0.25065826  0.41323990     0.16400
C984        C  0.62802778  0.23767038  0.40026133     0.25900
C985        C  0.61173425  0.21919793  0.40163561    -0.40500
C986        C  0.59642305  0.21408725  0.41661889     0.32900
C987        C  0.61567022  0.25962208  0.44404478     0.01500
F988        F  0.64503979  0.26825938  0.41231414    -0.12800
F989        F  0.58036365  0.19650673  0.41772801    -0.13300
C990        C  0.61525542  0.26001588  0.47895401     0.16400
C991        C  0.62183771  0.27551464  0.49481391     0.25900
C992        C  0.62890846  0.29128645  0.47587545    -0.40400
C993        C  0.62723266  0.28968137  0.44042680     0.32800
C994        C  0.62090846  0.27421339  0.42491601     0.14500
F995        F  0.61017663  0.24598629  0.49803295    -0.12800
F996        F  0.63298503  0.30360653  0.42019097    -0.13300
F997        F  0.62276780  0.27516534  0.52870931    -0.15600
F998        F  0.62102723  0.27396770  0.39091468    -0.14100
F999        F  0.58253004  0.22195183  0.44415957    -0.14100
F1000       F  0.64336579  0.24322132  0.38748828    -0.15600
C1001       C  0.65347673  0.20031761  0.05783923     0.14500
C1002       C  0.64314153  0.18443058  0.07778995     0.01500
C1003       C  0.63039265  0.16755660  0.06243206     0.16400
C1004       C  0.62747052  0.16663615  0.02784598     0.25900
C1005       C  0.63703310  0.18257607  0.00833001    -0.40500
C1006       C  0.65030685  0.19939619  0.02343960     0.32900
C1007       C  0.64434248  0.18547722  0.11476572     0.01500
F1008       F  0.61992079  0.15199549  0.08120065    -0.12800
F1009       F  0.65998261  0.21496294  0.00491028    -0.13300
C1010       C  0.64098614  0.19468582  0.13122498     0.16400
C1011       C  0.64042085  0.19442661  0.16617249     0.25900
C1012       C  0.64302927  0.18477482  0.18538397    -0.40400
C1013       C  0.64706472  0.17612205  0.16887865     0.32800
C1014       C  0.64772113  0.17648184  0.13385728     0.14500
F1015       F  0.63718119  0.20307550  0.11339396    -0.12800
F1016       F  0.65018790  0.16713482  0.18663819    -0.13300
F1017       F  0.63605280  0.20258124  0.18091647    -0.15600
F1018       F  0.65140961  0.16783769  0.11855291    -0.14100
F1019       F  0.66628421  0.21675280  0.07189872    -0.14100
F1020       F  0.61434663  0.15021130  0.01393625    -0.15600
C1021       C  0.61986371  0.25760909  0.77634150     0.14500
C1022       C  0.61766003  0.26604789  0.79916733     0.01500
C1023       C  0.60907096  0.25729144  0.83002862     0.16400
C1024       C  0.60338631  0.24073323  0.83840662     0.25900
C1025       C  0.60610694  0.23255644  0.81602804    -0.40500
C1026       C  0.61410629  0.24099994  0.78465059     0.32900
C1027       C  0.62443905  0.28399212  0.79058127     0.01500
F1028       F  0.60674155  0.26507339  0.85255578    -0.12800
F1029       F  0.61725001  0.23369524  0.76272696    -0.13300
C1030       C  0.61255819  0.28623167  0.78868183     0.16400
C1031       C  0.61846226  0.30243702  0.77619573     0.25900
C1032       C  0.63657850  0.31697266  0.76469201    -0.40400
C1033       C  0.64859958  0.31473753  0.76883765     0.32800
C1034       C  0.64266329  0.29866677  0.78204687     0.14500
F1035       F  0.59478144  0.27218388  0.79653429    -0.12800
F1036       F  0.66604609  0.32773955  0.75834970    -0.13300
F1037       F  0.60576489  0.30297443  0.77279238    -0.15600
F1038       F  0.65467118  0.29716528  0.78517352    -0.14100
F1039       F  0.62776652  0.26557115  0.74601689    -0.14100
F1040       F  0.59531842  0.23272890  0.86861387    -0.15600
C1041       C  0.54367208  0.02103243  0.39634552     0.14500
C1042       C  0.53453058  0.02651351  0.39278341     0.01500
C1043       C  0.51577546  0.01345474  0.38754257     0.16400
C1044       C  0.50651761  0.99544602  0.38298444     0.25900
C1045       C  0.51588059  0.99013914  0.38321376    -0.40500
C1046       C  0.53438689  0.00290388  0.39168017     0.32900
C1047       C  0.54467920  0.04583677  0.38790953     0.01500
F1048       F  0.50664312  0.01842456  0.38447531    -0.12800
F1049       F  0.54382883  0.99825835  0.39246253    -0.13300
C1050       C  0.54583115  0.05221440  0.35546800     0.16400
C1051       C  0.55495489  0.07022306  0.34969414     0.25900
C1052       C  0.56320637  0.08235068  0.37630736    -0.40400
C1053       C  0.56183064  0.07592467  0.40899898     0.32800
C1054       C  0.55269711  0.05776324  0.41473398     0.14500
F1055       F  0.53818886  0.04092252  0.32916992    -0.12800
F1056       F  0.56987470  0.08734266  0.43508264    -0.13300
F1057       F  0.55551018  0.07573073  0.31794300    -0.15600
F1058       F  0.55165607  0.05182031  0.44631935    -0.14100
F1059       F  0.56182638  0.03347286  0.40154865    -0.14100
F1060       F  0.48846933  0.98333025  0.37669423    -0.15600
C1061       C  0.46334990  0.81343563  0.44971086     0.14500
C1062       C  0.46532769  0.81374164  0.41512633     0.01500
C1063       C  0.46037327  0.79873098  0.40036169     0.16400
C1064       C  0.45323497  0.78345620  0.41995606     0.25900
C1065       C  0.45089114  0.78270339  0.45523683    -0.40500
C1066       C  0.45603554  0.79825610  0.46942493     0.32900
C1067       C  0.47047626  0.82895774  0.39467060     0.01500
F1068       F  0.46184529  0.79860200  0.36666043    -0.12800
F1069       F  0.45228122  0.79857751  0.50155884    -0.13300
C1070       C  0.48732943  0.84670061  0.39932246     0.16400
C1071       C  0.49097057  0.86141637  0.38451983     0.25900
C1072       C  0.47778555  0.85862548  0.36483363    -0.40400
C1073       C  0.46111083  0.84075819  0.35934828     0.32800
C1074       C  0.45752209  0.82609885  0.37413092     0.14500
F1075       F  0.50007509  0.84975749  0.41898445    -0.12800
F1076       F  0.44775699  0.83742744  0.34148649    -0.13300
F1077       F  0.50736809  0.87838426  0.38952062    -0.15600
F1078       F  0.44091269  0.80914373  0.37016095    -0.14100
F1079       F  0.46702657  0.82739260  0.46422288    -0.14100
F1080       F  0.44769751  0.76896329  0.40386672    -0.15600
C1081       C  0.51309709  0.02935901  0.78099065     0.14500
C1082       C  0.53200754  0.04175517  0.78341761     0.01500
C1083       C  0.54028069  0.03529551  0.78522151     0.16400
C1084       C  0.52970918  0.01666794  0.78701469     0.25900
C1085       C  0.51071629  0.00428971  0.78755235    -0.40500
C1086       C  0.50253337  0.01077980  0.78322556     0.32900
C1087       C  0.54269363  0.06095425  0.79009895     0.01500
F1088       F  0.55857399  0.04707816  0.78743643    -0.12800
F1089       F  0.48421554  0.99909692  0.78288860    -0.13300
C1090       C  0.54986232  0.06740542  0.82223755     0.16400
C1091       C  0.55954140  0.08523161  0.82990619     0.25900
C1092       C  0.56264062  0.09725219  0.80531486    -0.40400
C1093       C  0.55495236  0.09061571  0.77329565     0.32800
C1094       C  0.54497721  0.07255247  0.76580351     0.14500
F1095       F  0.54709273  0.05621702  0.84660805    -0.12800
F1096       F  0.55749729  0.10168584  0.74899823    -0.13300
F1097       F  0.56537452  0.09047679  0.86189057    -0.15600
F1098       F  0.53782059  0.06646459  0.73473421    -0.14100
F1099       F  0.50480021  0.03525580  0.77926767    -0.14100
F1100       F  0.53800743  0.01084374  0.79134662    -0.15600
C1101       C  0.44067552  0.92309974  0.05188437     0.14500
C1102       C  0.43147421  0.90617933  0.06706071     0.01500
C1103       C  0.42245413  0.89111440  0.04695282     0.16400
C1104       C  0.42378060  0.89315309  0.01206908     0.25900
C1105       C  0.43455131  0.91043558  0.99662399    -0.40500
C1106       C  0.44231168  0.92527986  0.01693453     0.32900
C1107       C  0.43421859  0.90490495  0.10297575     0.01500
F1108       F  0.41322127  0.87456755  0.06124980    -0.12800
F1109       F  0.45273721  0.94218841  0.00349040    -0.13300
C1110       C  0.42715615  0.90771263  0.12814134     0.16400
C1111       C  0.43112101  0.90761631  0.16192881     0.25900
C1112       C  0.44218822  0.90471217  0.17077783    -0.40400
C1113       C  0.44906137  0.90176113  0.14538751     0.32800
C1114       C  0.44509748  0.90185223  0.11188426     0.14500
F1115       F  0.41647655  0.91053288  0.11995909    -0.12800
F1116       F  0.46045993  0.89975822  0.15272430    -0.13300
F1117       F  0.42404725  0.91019196  0.18595634    -0.15600
F1118       F  0.45252936  0.89968803  0.08785005    -0.14100
F1119       F  0.44941735  0.93782207  0.07101099    -0.14100
F1120       F  0.41499280  0.87822730  0.99357309    -0.15600
C1121       C  0.43752877  0.83253954  0.78461782     0.14500
C1122       C  0.45127418  0.83467312  0.77062857     0.01500
C1123       C  0.46854339  0.85213595  0.76546809     0.16400
C1124       C  0.47207905  0.86731805  0.77470064     0.25900
C1125       C  0.45839396  0.86515092  0.78949979    -0.40500
C1126       C  0.44101432  0.84758893  0.79391524     0.32900
C1127       C  0.44694095  0.81857773  0.75930000     0.01500
F1128       F  0.48187150  0.85444500  0.75118685    -0.12800
F1129       F  0.42721871  0.84495029  0.80669226    -0.13300
C1130       C  0.43547259  0.80928858  0.73191240     0.16400
C1131       C  0.43007392  0.79337114  0.72203260     0.25900
C1132       C  0.43594855  0.78599461  0.73933828    -0.40400
C1133       C  0.44725706  0.79538006  0.76770864     0.32800
C1134       C  0.45289801  0.81164221  0.77704676     0.14500
F1135       F  0.42930332  0.81561475  0.71473388    -0.12800
F1136       F  0.45217149  0.78864192  0.78783414    -0.13300
F1137       F  0.41910427  0.78519611  0.69488777    -0.15600
F1138       F  0.46356030  0.82023150  0.80444183    -0.14100
F1139       F  0.42065401  0.81578023  0.78925655    -0.14100
F1140       F  0.48896838  0.88403255  0.77012886    -0.15600
loop_ 
_geom_bond_atom_site_label_1 
_geom_bond_atom_site_label_2 
_geom_bond_distance 
_geom_bond_site_symmetry_2 
_ccdc_geom_bond_type 
N1            N2   1.322       .  A
N1            C5   1.353       .  A
N1           Cu9   2.102       .  S
N2            C3   1.338       .  A
N2           Cu8   2.050       .  S
C3            C4   1.378       .  A
C3            H6   1.081       .  S
C4            C5   1.393       .  A
C4         C1125   1.482       .  S
C5            H7   1.082       .  S
Cu8          N11   2.050       .  S
Cu9          N19   2.104       .  S
Cu10         N12   2.071       .  S
Cu10         N18   2.072       .  S
N11          N12   1.316       .  A
N11          C15   1.339       .  A
N12          C13   1.347       .  A
C13          C14   1.393       .  A
C13          H16   1.080       .  S
C14          C15   1.387       .  A
C14        C1105   1.488       .  S
C15          H17   1.082       .  S
N18          N19   1.326       .  A
N18          C22   1.340       .  A
N19          C20   1.352       .  A
C20          C21   1.389       .  A
C20          H23   1.083       .  S
C21          C22   1.379       .  A
C21        C1085   1.480   1_565  S
C22          H24   1.082       .  S
N25          N26   1.323       .  A
N25          C29   1.350       .  A
N25         Cu33   2.101       .  S
N26          C27   1.341       .  A
N26         Cu32   2.057       .  S
C27          C28   1.380       .  A
C27          H30   1.082       .  S
C28          C29   1.392       .  A
C28        C1072   1.485       .  S
C29          H31   1.082       .  S
Cu32         N35   2.057       .  S
Cu33         N43   2.101       .  S
Cu34         N36   2.064       .  S
Cu34         N42   2.065       .  S
N35          N36   1.318       .  A
N35          C39   1.341       .  A
N36          C37   1.346       .  A
C37          C38   1.386       .  A
C37          H40   1.082       .  S
C38          C39   1.385       .  A
C38        C1112   1.477       .  S
C39          H41   1.082       .  S
N42          N43   1.323       .  A
N42          C46   1.338       .  A
N43          C44   1.353       .  A
C44          C45   1.392       .  A
C44          H47   1.081       .  S
C45          C46   1.380       .  A
C45        C1045   1.485       .  S
C46          H48   1.081       .  S
N49          N50   1.323       .  A
N49          C53   1.353       .  A
N49         Cu57   2.108       .  S
N50          C51   1.338       .  A
N50         Cu56   2.058       .  S
C51          C52   1.381       .  A
C51          H54   1.080       .  S
C52          C53   1.394       .  A
C52        C1092   1.489       .  S
C53          H55   1.081       .  S
Cu56         N59   2.059       .  S
Cu57         N67   2.108       .  S
Cu58         N60   2.054       .  S
Cu58         N66   2.054       .  S
N59          N60   1.318       .  A
N59          C63   1.345       .  A
N60          C61   1.341       .  A
C61          C62   1.382       .  A
C61          H64   1.082       .  S
C62          C63   1.384       .  A
C62        C1005   1.471   1_556  S
C63          H65   1.082       .  S
N66          N67   1.323       .  A
N66          C70   1.340       .  A
N67          C68   1.352       .  A
C68          C69   1.393       .  A
C68          H71   1.082       .  S
C69          C70   1.378       .  A
C69        C1025   1.483       .  S
C70          H72   1.081       .  S
N73          N74   1.325       .  A
N73          C77   1.352       .  A
N73         Cu81   2.109       .  S
N74          C75   1.341       .  A
N74         Cu80   2.068       .  S
C75          C76   1.382       .  A
C75          H78   1.081       .  S
C76          C77   1.393       .  A
C76         C985   1.489       .  S
C77          H79   1.082       .  S
Cu80         N83   2.065       .  S
Cu81         N91   2.108       .  S
Cu82         N84   2.049       .  S
Cu82         N90   2.049       .  S
N83          N84   1.317       .  A
N83          C87   1.344       .  A
N84          C85   1.341       .  A
C85          C86   1.384       .  A
C85          H88   1.082       .  S
C86          C87   1.389       .  A
C86        C1012   1.480       .  S
C87          H89   1.082       .  S
N90          N91   1.322       .  A
N90          C94   1.338       .  A
N91          C92   1.354       .  A
C92          C93   1.393       .  A
C92          H95   1.082       .  S
C93          C94   1.378       .  A
C93        C1052   1.483       .  S
C94          H96   1.082       .  S
N97          N98   1.324       .  A
N97         C101   1.352       .  A
N97        Cu105   2.106       .  S
N98          C99   1.341       .  A
N98        Cu104   2.064       .  S
C99         C100   1.379       .  A
C99         H102   1.082       .  S
C100        C101   1.391       .  A
C100        C925   1.481       .  S
C101        H103   1.082       .  S
Cu104       N107   2.064       .  S
Cu105       N115   2.105       .  S
Cu106       N108   2.059       .  S
Cu106       N114   2.060       .  S
N107        N108   1.319       .  A
N107        C111   1.345       .  A
N108        C109   1.342       .  A
C109        C110   1.382       .  A
C109        H112   1.083       .  S
C110        C111   1.384       .  A
C110        C952   1.473       .  S
C111        H113   1.082       .  S
N114        N115   1.322       .  A
N114        C118   1.340       .  A
N115        C116   1.352       .  A
C116        C117   1.394       .  A
C116        H119   1.082       .  S
C117        C118   1.382       .  A
C117        C965   1.490       .  S
C118        H120   1.081       .  S
N121        N122   1.319       .  A
N121        C125   1.349       .  A
N121       Cu129   2.088       .  S
N122        C123   1.338       .  A
N122       Cu128   2.041       .  S
C123        C124   1.380       .  A
C123        H126   1.080       .  S
C124        C125   1.392       .  A
C124        C905   1.481       .  S
C125        H127   1.082       .  S
Cu128       N131   2.042       .  S
Cu129       N139   2.090       .  S
Cu130       N132   2.081       .  S
Cu130       N138   2.083       .  S
N131        N132   1.319       .  A
N131        C135   1.338       .  A
N132        C133   1.349       .  A
C133        C134   1.388       .  A
C133        H136   1.082       .  S
C134        C135   1.378       .  A
C134        C945   1.472       .  S
C135        H137   1.083       .  S
N138        N139   1.326       .  A
N138        C142   1.343       .  A
N139        C140   1.348       .  A
C140        C141   1.385       .  A
C140        H143   1.083       .  S
C141        C142   1.381       .  A
C141        C885   1.476       .  S
C142        H144   1.082       .  S
N145        N146   1.323       .  A
N145        C149   1.352       .  A
N145       Cu153   2.107       .  S
N146        C147   1.340       .  A
N146       Cu152   2.058       .  S
C147        C148   1.379       .  A
C147        H150   1.081       .  S
C148        C149   1.392       .  A
C148        C865   1.484       .  S
C149        H151   1.083       .  S
Cu152       N155   2.058       .  S
Cu153       N163   2.107       .  S
Cu154       N156   2.066       .  S
Cu154       N162   2.067       .  S
N155        N156   1.318       .  A
N155        C159   1.342       .  A
N156        C157   1.345       .  A
C157        C158   1.386       .  A
C157        H160   1.082       .  S
C158        C159   1.384       .  A
C158        C845   1.477   1_556  S
C159        H161   1.082       .  S
N162        N163   1.324       .  A
N162        C166   1.339       .  A
N163        C164   1.353       .  A
C164        C165   1.393       .  A
C164        H167   1.082       .  S
C165        C166   1.382       .  A
C165        C932   1.490       .  S
C166        H168   1.082       .  S
N169        N170   1.324       .  A
N169        C173   1.354       .  A
N169       Cu177   2.103       .  S
N170        C171   1.337       .  A
N170       Cu176   2.060       .  S
C171        C172   1.379       .  A
C171        H174   1.080       .  S
C172        C173   1.392       .  A
C172        C892   1.483       .  S
C173        H175   1.082       .  S
Cu176       N179   2.060       .  S
Cu177       N187   2.102       .  S
Cu178       N180   2.054       .  S
Cu178       N186   2.055       .  S
N179        N180   1.316       .  A
N179        C183   1.346       .  A
N180        C181   1.340       .  A
C181        C182   1.386       .  A
C181        H184   1.082       .  S
C182        C183   1.389       .  A
C182        C852   1.482       .  S
C183        H185   1.081       .  S
N186        N187   1.322       .  A
N186        C190   1.338       .  A
N187        C188   1.351       .  A
C188        C189   1.394       .  A
C188        H191   1.082       .  S
C189        C190   1.380       .  A
C189        C832   1.486       .  S
C190        H192   1.082       .  S
C193        C765   1.584       .  S
C193        C785   1.573       .  S
C193        C805   1.582       .  S
C193        C972   1.567       .  S
C194        C732   1.572       .  S
C194        C752   1.565       .  S
C194        C792   1.567       .  S
C194       C1032   1.558       .  S
C195        C685   1.560       .  S
C195        C705   1.568       .  S
C195        C745   1.574       .  S
C195        C812   1.576       .  S
C196        C645   1.579       .  S
C196        C665   1.586       .  S
C196        C772   1.580       .  S
C196        C912   1.558       .  S
C197        C625   1.565       .  S
C197        C652   1.574       .  S
C197        C725   1.578       .  S
C197        C992   1.567       .  S
C198        C605   1.563       .  S
C198        C632   1.573       .  S
C198        C672   1.571       .  S
C198        C712   1.565       .  S
C199        C525   1.570       .  S
C199        C552   1.573       .  S
C199        C572   1.579       .  S
C199        C585   1.581       .  S
C200        C485   1.567       .  S
C200        C505   1.572       .  S
C200        C565   1.580       .  S
C200       C1132   1.559       .  S
C201        C472   1.572       .  S
C201        C512   1.570       .  S
C201        C592   1.599       .  S
C201        C872   1.585       .  S
C202        C405   1.564       .  S
C202        C425   1.593       .  S
C202        C452   1.583       .  S
C202        C545   1.572       .  S
C203        C385   1.568       .  S
C203        C432   1.570       .  S
C203        C492   1.568       .  S
C203       C1065   1.568       .  S
C204        C392   1.568       .  S
C204        C445   1.578       .  S
C204        C465   1.569       .  S
C204        C825   1.559       .  S
N205        N206   1.323       .  A
N205        C209   1.351       .  A
N205       Cu213   2.098       .  S
N206        C207   1.341       .  A
N206       Cu212   2.067       .  S
C207        C208   1.383       .  A
C207        H210   1.080       .  S
C208        C209   1.392       .  A
C208        C532   1.489       .  S
C209        H211   1.082       .  S
Cu212       N215   2.066       .  S
Cu213       N223   2.098       .  S
Cu214       N216   2.062       .  S
Cu214       N222   2.063       .  S
N215        N216   1.318       .  A
N215        C219   1.343       .  A
N216        C217   1.344       .  A
C217        C218   1.388       .  A
C217        H220   1.081       .  S
C218        C219   1.388       .  A
C218        C372   1.485   1_556  S
C219        H221   1.082       .  S
N222        N223   1.323       .  A
N222        C226   1.340       .  A
N223        C224   1.351       .  A
C224        C225   1.391       .  A
C224        H227   1.081       .  S
C225        C226   1.380       .  A
C225        C345   1.483       .  S
C226        H228   1.080       .  S
N229        N230   1.324       .  A
N229        C233   1.355       .  A
N229       Cu237   2.120       .  S
N230        C231   1.339       .  A
N230       Cu236   2.059       .  S
C231        C232   1.379       .  A
C231        H234   1.080       .  S
C232        C233   1.395       .  A
C232        C412   1.489       .  S
C233        H235   1.082       .  S
Cu236       N239   2.058       .  S
Cu237       N247   2.120       .  S
Cu238       N240   2.060       .  S
Cu238       N246   2.061       .  S
N239        N240   1.316       .  A
N239        C243   1.343       .  A
N240        C241   1.344       .  A
C241        C242   1.387       .  A
C241        H244   1.082       .  S
C242        C243   1.388       .  A
C242        C365   1.483       .  S
C243        H245   1.082       .  S
N246        N247   1.324       .  A
N246        C250   1.338       .  A
N247        C248   1.356       .  A
C248        C249   1.397       .  A
C248        H251   1.082       .  S
C249        C250   1.380       .  A
C249        C325   1.493       .  S
C250        H252   1.081       .  S
N253        N254   1.322       .  A
N253        C257   1.352       .  A
N253       Cu261   2.106       .  S
N254        C255   1.338       .  A
N254       Cu260   2.052       .  S
C255        C256   1.380       .  A
C255        H258   1.080       .  S
C256        C257   1.394       .  A
C256        C692   1.487       .  S
C257        H259   1.082       .  S
Cu260       N263   2.051       .  S
Cu261       N271   2.106       .  S
Cu262       N264   2.055       .  S
Cu262       N270   2.056       .  S
N263        N264   1.316       .  A
N263        C267   1.342       .  A
N264        C265   1.342       .  A
C265        C266   1.387       .  A
C265        H268   1.081       .  S
C266        C267   1.386       .  A
C266        C305   1.479   1_556  S
C267        H269   1.081       .  S
N270        N271   1.323       .  A
N270        C274   1.338       .  A
N271        C272   1.353       .  A
C272        C273   1.394       .  A
C272        H275   1.082       .  S
C273        C274   1.380       .  A
C273        C352   1.488       .  S
C274        H276   1.081       .  S
N277        N278   1.322       .  A
N277        C281   1.354       .  A
N277       Cu285   2.116       .  S
N278        C279   1.339       .  A
N278       Cu284   2.047       .  S
C279        C280   1.378       .  A
C279        H282   1.081       .  S
C280        C281   1.396       .  A
C280        C612   1.487       .  S
C281        H283   1.082       .  S
Cu284       N287   2.046       .  S
Cu285       N295   2.117       .  S
Cu286       N288   2.069       .  S
Cu286       N294   2.070       .  S
N287        N288   1.317       .  A
N287        C291   1.339       .  A
N288        C289   1.346       .  A
C289        C290   1.391       .  A
C289        H292   1.081       .  S
C290        C291   1.384       .  A
C290        C312   1.483       .  S
C291        H293   1.082       .  S
N294        N295   1.326       .  A
N294        C298   1.341       .  A
N295        C296   1.354       .  A
C296        C297   1.391       .  A
C296        H299   1.081       .  S
C297        C298   1.378       .  A
C297        C332   1.482       .  S
C298        H300   1.084       .  S
C301        C302   1.404       .  A
C301        C306   1.396       .  A
C301        F319   1.358       .  S
C302        C303   1.402       .  A
C302        C307   1.475       .  S
C303        C304   1.397       .  A
C303        F308   1.358       .  S
C304        C305   1.409       .  A
C304        F320   1.357       .  S
C305        C306   1.409       .  A
C306        F309   1.357       .  S
C307        C310   1.401       .  A
C307        C314   1.403       .  A
C310        C311   1.396       .  A
C310        F315   1.358       .  S
C311        C312   1.411       .  A
C311        F317   1.357       .  S
C312        C313   1.410       .  A
C313        C314   1.397       .  A
C313        F316   1.356       .  S
C314        F318   1.358       .  S
C321        C322   1.407       .  A
C321        C326   1.409       .  A
C321        F339   1.357       .  S
C322        C323   1.401       .  A
C322        C327   1.485       .  S
C323        C324   1.396       .  A
C323        F328   1.358       .  S
C324        C325   1.412       .  A
C324        F340   1.357       .  S
C325        C326   1.410       .  A
C326        F329   1.357       .  S
C327        C330   1.408       .  A
C327        C334   1.403       .  A
C330        C331   1.404       .  A
C330        F335   1.358       .  S
C331        C332   1.406       .  A
C331        F337   1.358       .  S
C332        C333   1.408       .  A
C333        C334   1.401       .  A
C333        F336   1.358       .  S
C334        F338   1.358       .  S
C341        C342   1.410       .  A
C341        C346   1.403       .  A
C341        F359   1.358       .  S
C342        C343   1.407       .  A
C342        C347   1.490       .  S
C343        C344   1.397       .  A
C343        F348   1.358       .  S
C344        C345   1.408       .  A
C344        F360   1.358       .  S
C345        C346   1.406       .  A
C346        F349   1.357       .  S
C347        C350   1.406       .  A
C347        C354   1.409       .  A
C350        C351   1.395       .  A
C350        F355   1.358       .  S
C351        C352   1.409       .  A
C351        F357   1.358       .  S
C352        C353   1.408       .  A
C353        C354   1.405       .  A
C353        F356   1.357       .  S
C354        F358   1.358       .  S
C361        C362   1.402       .  A
C361        C366   1.396       .  A
C361        F379   1.358       .  S
C362        C363   1.403       .  A
C362        C367   1.476       .  S
C363        C364   1.400       .  A
C363        F368   1.358       .  S
C364        C365   1.410       .  A
C364        F380   1.358       .  S
C365        C366   1.409       .  A
C366        F369   1.357       .  S
C367        C370   1.403       .  A
C367        C374   1.402       .  A
C370        C371   1.399       .  A
C370        F375   1.358       .  S
C371        C372   1.411       .  A
C371        F377   1.357       .  S
C372        C373   1.410       .  A
C373        C374   1.398       .  A
C373        F376   1.357       .  S
C374        F378   1.358       .  S
C381        C382   1.404       .  A
C381        C386   1.405       .  A
C381        F399   1.357       .  S
C382        C383   1.402       .  A
C382        C387   1.487       .  S
C383        C384   1.391       .  A
C383        F388   1.357       .  S
C384        C385   1.424       .  A
C384        F400   1.357       .  S
C385        C386   1.421       .  A
C386        F389   1.357       .  S
C387        C390   1.404       .  A
C387        C394   1.404       .  A
C390        C391   1.402       .  A
C390        F395   1.358       .  S
C391        C392   1.422       .  A
C391        F397   1.357       .  S
C392        C393   1.421       .  A
C393        C394   1.397       .  A
C393        F396   1.356       .  S
C394        F398   1.358       .  S
C401        C402   1.402       .  A
C401        C406   1.404       .  A
C401        F419   1.358       .  S
C402        C403   1.400       .  A
C402        C407   1.488       .  S
C403        C404   1.398       .  A
C403        F408   1.358       .  S
C404        C405   1.423       .  A
C404        F420   1.356       .  S
C405        C406   1.424       .  A
C406        F409   1.355       .  S
C407        C410   1.408       .  A
C407        C414   1.404       .  A
C410        C411   1.406       .  A
C410        F415   1.357       .  S
C411        C412   1.408       .  A
C411        F417   1.357       .  S
C412        C413   1.411       .  A
C413        C414   1.398       .  A
C413        F416   1.358       .  S
C414        F418   1.358       .  S
C421        C422   1.395       .  A
C421        C426   1.396       .  A
C421        F439   1.359       .  S
C422        C423   1.398       .  A
C422        C427   1.482       .  S
C423        C424   1.407       .  A
C423        F428   1.357       .  S
C424        C425   1.433       .  A
C424        F440   1.357       .  S
C425        C426   1.430       .  A
C426        F429   1.343       .  S
C427        C430   1.393       .  A
C427        C434   1.406       .  A
C430        C431   1.382       .  A
C430        F435   1.357       .  S
C431        C432   1.424       .  A
C431        F437   1.355       .  S
C432        C433   1.424       .  A
C433        C434   1.415       .  A
C433        F436   1.355       .  S
C434        F438   1.357       .  S
C441        C442   1.404       .  A
C441        C446   1.408       .  A
C441        F459   1.357       .  S
C442        C443   1.395       .  A
C442        C447   1.486       .  S
C443        C444   1.392       .  A
C443        F448   1.359       .  S
C444        C445   1.430       .  A
C444        F460   1.351       .  S
C445        C446   1.424       .  A
C446        F449   1.357       .  S
C447        C450   1.407       .  A
C447        C454   1.397       .  A
C450        C451   1.410       .  A
C450        F455   1.357       .  S
C451        C452   1.418       .  A
C451        F457   1.359       .  S
C452        C453   1.429       .  A
C453        C454   1.395       .  A
C453        F456   1.357       .  S
C454        F458   1.358       .  S
C461        C462   1.396       .  A
C461        C466   1.397       .  A
C461        F479   1.358       .  S
C462        C463   1.402       .  A
C462        C467   1.480       .  S
C463        C464   1.396       .  A
C463        F468   1.358       .  S
C464        C465   1.420       .  A
C464        F480   1.357       .  S
C465        C466   1.430       .  A
C466        F469   1.356       .  S
C467        C470   1.400       .  A
C467        C474   1.397       .  A
C470        C471   1.400       .  A
C470        F475   1.358       .  S
C471        C472   1.428       .  A
C471        F477   1.359       .  S
C472        C473   1.431       .  A
C473        C474   1.392       .  A
C473        F476   1.352       .  S
C474        F478   1.359       .  S
C481        C482   1.397       .  A
C481        C486   1.397       .  A
C481        F499   1.358       .  S
C482        C483   1.401       .  A
C482        C487   1.478       .  S
C483        C484   1.395       .  A
C483        F488   1.358       .  S
C484        C485   1.422       .  A
C484        F500   1.357       .  S
C485        C486   1.427       .  A
C486        F489   1.356       .  S
C487        C490   1.399       .  A
C487        C494   1.398       .  A
C490        C491   1.399       .  A
C490        F495   1.358       .  S
C491        C492   1.425       .  A
C491        F497   1.358       .  S
C492        C493   1.426       .  A
C493        C494   1.392       .  A
C493        F496   1.353       .  S
C494        F498   1.359       .  S
C501        C502   1.400       .  A
C501        C506   1.396       .  A
C501        F519   1.358       .  S
C502        C503   1.402       .  A
C502        C507   1.480       .  S
C503        C504   1.402       .  A
C503        F508   1.358       .  S
C504        C505   1.424       .  A
C504        F520   1.357       .  S
C505        C506   1.424       .  A
C506        F509   1.355       .  S
C507        C510   1.401       .  A
C507        C514   1.396       .  A
C510        C511   1.406       .  A
C510        F515   1.357       .  S
C511        C512   1.427       .  A
C511        F517   1.357       .  S
C512        C513   1.424       .  A
C513        C514   1.387       .  A
C513        F516   1.348       .  S
C514        F518   1.355       .  S
C521        C522   1.399       .  A
C521        C526   1.398       .  A
C521        F539   1.358       .  S
C522        C523   1.400       .  A
C522        C527   1.486       .  S
C523        C524   1.403       .  A
C523        F528   1.358       .  S
C524        C525   1.428       .  A
C524        F540   1.354       .  S
C525        C526   1.424       .  A
C526        F529   1.358       .  S
C527        C530   1.407       .  A
C527        C534   1.403       .  A
C530        C531   1.403       .  A
C530        F535   1.358       .  S
C531        C532   1.409       .  A
C531        F537   1.357       .  S
C532        C533   1.411       .  A
C533        C534   1.399       .  A
C533        F536   1.357       .  S
C534        F538   1.358       .  S
C541        C542   1.402       .  A
C541        C546   1.401       .  A
C541        F559   1.358       .  S
C542        C543   1.401       .  A
C542        C547   1.485       .  S
C543        C544   1.394       .  A
C543        F548   1.358       .  S
C544        C545   1.423       .  A
C544        F560   1.357       .  S
C545        C546   1.425       .  A
C546        F549   1.354       .  S
C547        C550   1.401       .  A
C547        C554   1.399       .  A
C550        C551   1.401       .  A
C550        F555   1.358       .  S
C551        C552   1.424       .  A
C551        F557   1.358       .  S
C552        C553   1.428       .  A
C553        C554   1.395       .  A
C553        F556   1.354       .  S
C554        F558   1.359       .  S
C561        C562   1.405       .  A
C561        C566   1.409       .  A
C561        F579   1.358       .  S
C562        C563   1.398       .  A
C562        C567   1.493       .  S
C563        C564   1.392       .  A
C563        F568   1.360       .  S
C564        C565   1.428       .  A
C564        F580   1.345       .  S
C565        C566   1.425       .  A
C566        F569   1.357       .  S
C567        C570   1.405       .  A
C567        C574   1.400       .  A
C570        C571   1.404       .  A
C570        F575   1.358       .  S
C571        C572   1.423       .  A
C571        F577   1.358       .  S
C572        C573   1.432       .  A
C573        C574   1.398       .  A
C573        F576   1.351       .  S
C574        F578   1.359       .  S
C581        C582   1.404       .  A
C581        C586   1.387       .  A
C581        F599   1.360       .  S
C582        C583   1.403       .  A
C582        C587   1.496       .  S
C583        C584   1.416       .  A
C583        F588   1.357       .  S
C584        C585   1.431       .  A
C584        F600   1.354       .  S
C585        C586   1.423       .  A
C586        F589   1.355       .  S
C587        C590   1.390       .  A
C587        C594   1.406       .  A
C590        C591   1.383       .  A
C590        F595   1.360       .  S
C591        C592   1.439       .  A
C591        F597   1.354       .  S
C592        C593   1.433       .  A
C593        C594   1.423       .  A
C593        F596   1.351       .  S
C594        F598   1.357       .  S
C601        C602   1.400       .  A
C601        C606   1.403       .  A
C601        F619   1.358       .  S
C602        C603   1.398       .  A
C602        C607   1.484       .  S
C603        C604   1.398       .  A
C603        F608   1.358       .  S
C604        C605   1.422       .  A
C604        F620   1.356       .  S
C605        C606   1.427       .  A
C606        F609   1.355       .  S
C607        C610   1.407       .  A
C607        C614   1.401       .  A
C610        C611   1.404       .  A
C610        F615   1.358       .  S
C611        C612   1.407       .  A
C611        F617   1.357       .  S
C612        C613   1.412       .  A
C613        C614   1.400       .  A
C613        F616   1.358       .  S
C614        F618   1.358       .  S
C621        C622   1.406       .  A
C621        C626   1.413       .  A
C621        F639   1.357       .  S
C622        C623   1.396       .  A
C622        C627   1.481       .  S
C623        C624   1.383       .  A
C623        F628   1.360       .  S
C624        C625   1.423       .  A
C624        F640   1.359       .  S
C625        C626   1.422       .  A
C626        F629   1.356       .  S
C627        C630   1.397       .  A
C627        C634   1.399       .  A
C630        C631   1.394       .  A
C630        F635   1.359       .  S
C631        C632   1.429       .  A
C631        F637   1.353       .  S
C632        C633   1.425       .  A
C633        C634   1.405       .  A
C633        F636   1.357       .  S
C634        F638   1.358       .  S
C641        C642   1.403       .  A
C641        C646   1.403       .  A
C641        F659   1.358       .  S
C642        C643   1.399       .  A
C642        C647   1.485       .  S
C643        C644   1.399       .  A
C643        F648   1.358       .  S
C644        C645   1.428       .  A
C644        F660   1.357       .  S
C645        C646   1.424       .  A
C646        F649   1.354       .  S
C647        C650   1.407       .  A
C647        C654   1.398       .  A
C650        C651   1.413       .  A
C650        F655   1.357       .  S
C651        C652   1.417       .  A
C651        F657   1.358       .  S
C652        C653   1.426       .  A
C653        C654   1.385       .  A
C653        F656   1.358       .  S
C654        F658   1.357       .  S
C661        C662   1.402       .  A
C661        C666   1.410       .  A
C661        F679   1.357       .  S
C662        C663   1.393       .  A
C662        C667   1.486       .  S
C663        C664   1.395       .  A
C663        F668   1.360       .  S
C664        C665   1.430       .  A
C664        F680   1.346       .  S
C665        C666   1.428       .  A
C666        F669   1.358       .  S
C667        C670   1.404       .  A
C667        C674   1.397       .  A
C670        C671   1.412       .  A
C670        F675   1.357       .  S
C671        C672   1.426       .  A
C671        F677   1.356       .  S
C672        C673   1.423       .  A
C673        C674   1.391       .  A
C673        F676   1.357       .  S
C674        F678   1.357       .  S
C681        C682   1.397       .  A
C681        C686   1.398       .  A
C681        F699   1.358       .  S
C682        C683   1.400       .  A
C682        C687   1.478       .  S
C683        C684   1.400       .  A
C683        F688   1.358       .  S
C684        C685   1.423       .  A
C684        F700   1.355       .  S
C685        C686   1.423       .  A
C686        F689   1.357       .  S
C687        C690   1.405       .  A
C687        C694   1.400       .  A
C690        C691   1.403       .  A
C690        F695   1.358       .  S
C691        C692   1.408       .  A
C691        F697   1.357       .  S
C692        C693   1.413       .  A
C693        C694   1.397       .  A
C693        F696   1.357       .  S
C694        F698   1.358       .  S
C701        C702   1.398       .  A
C701        C706   1.400       .  A
C701        F719   1.358       .  S
C702        C703   1.399       .  A
C702        C707   1.474       .  S
C703        C704   1.392       .  A
C703        F708   1.359       .  S
C704        C705   1.424       .  A
C704        F720   1.358       .  S
C705        C706   1.426       .  A
C706        F709   1.355       .  S
C707        C710   1.399       .  A
C707        C714   1.398       .  A
C710        C711   1.393       .  A
C710        F715   1.359       .  S
C711        C712   1.423       .  A
C711        F717   1.357       .  S
C712        C713   1.424       .  A
C713        C714   1.399       .  A
C713        F716   1.356       .  S
C714        F718   1.358       .  S
C721        C722   1.408       .  A
C721        C726   1.402       .  A
C721        F739   1.356       .  S
C722        C723   1.406       .  A
C722        C727   1.506       .  S
C723        C724   1.394       .  A
C723        F728   1.359       .  S
C724        C725   1.422       .  A
C724        F740   1.348       .  S
C725        C726   1.426       .  A
C726        F729   1.357       .  S
C727        C730   1.413       .  A
C727        C734   1.408       .  A
C730        C731   1.408       .  A
C730        F735   1.356       .  S
C731        C732   1.419       .  A
C731        F737   1.355       .  S
C732        C733   1.421       .  A
C733        C734   1.386       .  A
C733        F736   1.357       .  S
C734        F738   1.358       .  S
C741        C742   1.402       .  A
C741        C746   1.400       .  A
C741        F759   1.359       .  S
C742        C743   1.399       .  A
C742        C747   1.488       .  S
C743        C744   1.403       .  A
C743        F748   1.358       .  S
C744        C745   1.427       .  A
C744        F760   1.357       .  S
C745        C746   1.426       .  A
C746        F749   1.351       .  S
C747        C750   1.399       .  A
C747        C754   1.403       .  A
C750        C751   1.400       .  A
C750        F755   1.358       .  S
C751        C752   1.424       .  A
C751        F757   1.356       .  S
C752        C753   1.423       .  A
C753        C754   1.403       .  A
C753        F756   1.355       .  S
C754        F758   1.358       .  S
C761        C762   1.410       .  A
C761        C766   1.411       .  A
C761        F779   1.357       .  S
C762        C763   1.397       .  A
C762        C767   1.498       .  S
C763        C764   1.388       .  A
C763        F768   1.360       .  S
C764        C765   1.435       .  A
C764        F780   1.355       .  S
C765        C766   1.421       .  A
C766        F769   1.359       .  S
C767        C770   1.402       .  A
C767        C774   1.406       .  A
C770        C771   1.403       .  A
C770        F775   1.357       .  S
C771        C772   1.432       .  A
C771        F777   1.354       .  S
C772        C773   1.421       .  A
C773        C774   1.396       .  A
C773        F776   1.357       .  S
C774        F778   1.358       .  S
C781        C782   1.406       .  A
C781        C786   1.407       .  A
C781        F799   1.357       .  S
C782        C783   1.400       .  A
C782        C787   1.490       .  S
C783        C784   1.383       .  A
C783        F788   1.359       .  S
C784        C785   1.425       .  A
C784        F800   1.358       .  S
C785        C786   1.425       .  A
C786        F789   1.354       .  S
C787        C790   1.407       .  A
C787        C794   1.401       .  A
C790        C791   1.410       .  A
C790        F795   1.357       .  S
C791        C792   1.424       .  A
C791        F797   1.356       .  S
C792        C793   1.421       .  A
C793        C794   1.379       .  A
C793        F796   1.357       .  S
C794        F798   1.360       .  S
C801        C802   1.412       .  A
C801        C806   1.402       .  A
C801        F819   1.355       .  S
C802        C803   1.409       .  A
C802        C807   1.513       .  S
C803        C804   1.403       .  A
C803        F808   1.359       .  S
C804        C805   1.422       .  A
C804        F820   1.349       .  S
C805        C806   1.425       .  A
C806        F809   1.359       .  S
C807        C810   1.414       .  A
C807        C814   1.413       .  A
C810        C811   1.411       .  A
C810        F815   1.356       .  S
C811        C812   1.421       .  A
C811        F817   1.357       .  S
C812        C813   1.419       .  A
C813        C814   1.390       .  A
C813        F816   1.356       .  S
C814        F818   1.357       .  S
C821        C822   1.398       .  A
C821        C826   1.391       .  A
C821        F839   1.359       .  S
C822        C823   1.405       .  A
C822        C827   1.483       .  S
C823        C824   1.405       .  A
C823        F828   1.358       .  S
C824        C825   1.421       .  A
C824        F840   1.354       .  S
C825        C826   1.423       .  A
C826        F829   1.357       .  S
C827        C830   1.402       .  A
C827        C834   1.408       .  A
C830        C831   1.398       .  A
C830        F835   1.358       .  S
C831        C832   1.412       .  A
C831        F837   1.357       .  S
C832        C833   1.407       .  A
C833        C834   1.400       .  A
C833        F836   1.357       .  S
C834        F838   1.358       .  S
C841        C842   1.403       .  A
C841        C846   1.402       .  A
C841        F859   1.357       .  S
C842        C843   1.402       .  A
C842        C847   1.473       .  S
C843        C844   1.394       .  A
C843        F848   1.358       .  S
C844        C845   1.407       .  A
C844        F860   1.358       .  S
C845        C846   1.408       .  A
C846        F849   1.358       .  S
C847        C850   1.403       .  A
C847        C854   1.401       .  A
C850        C851   1.399       .  A
C850        F855   1.358       .  S
C851        C852   1.410       .  A
C851        F857   1.357       .  S
C852        C853   1.409       .  A
C853        C854   1.396       .  A
C853        F856   1.358       .  S
C854        F858   1.358       .  S
C861        C862   1.406       .  A
C861        C866   1.399       .  A
C861        F879   1.358       .  S
C862        C863   1.409       .  A
C862        C867   1.489       .  S
C863        C864   1.403       .  A
C863        F868   1.358       .  S
C864        C865   1.405       .  A
C864        F880   1.357       .  S
C865        C866   1.409       .  A
C866        F869   1.358       .  S
C867        C870   1.401       .  A
C867        C874   1.394       .  A
C870        C871   1.405       .  A
C870        F875   1.358       .  S
C871        C872   1.428       .  A
C871        F877   1.358       .  S
C872        C873   1.438       .  A
C873        C874   1.396       .  A
C873        F876   1.353       .  S
C874        F878   1.359       .  S
C881        C882   1.403       .  A
C881        C886   1.401   1_455  A
C881        F899   1.357       .  S
C882        C883   1.406       .  A
C882        C887   1.478       .  S
C883        C884   1.399   1_455  A
C883        F888   1.358       .  S
C884        C885   1.405       .  A
C884        F900   1.358       .  S
C885        C886   1.406       .  A
C886        F889   1.358       .  S
C887        C890   1.401       .  A
C887        C894   1.406       .  A
C890        C891   1.391       .  A
C890        F895   1.359       .  S
C891        C892   1.409       .  A
C891        F897   1.358       .  S
C892        C893   1.409       .  A
C893        C894   1.408       .  A
C893        F896   1.357       .  S
C894        F898   1.357       .  S
C901        C902   1.400       .  A
C901        C906   1.396       .  A
C901        F919   1.358       .  S
C902        C903   1.403       .  A
C902        C907   1.473       .  S
C903        C904   1.399       .  A
C903        F908   1.358       .  S
C904        C905   1.407       .  A
C904        F920   1.357       .  S
C905        C906   1.412       .  A
C906        F909   1.357       .  S
C907        C910   1.394       .  A
C907        C914   1.401       .  A
C910        C911   1.391       .  A
C910        F915   1.358       .  S
C911        C912   1.425       .  A
C911        F917   1.359       .  S
C912        C913   1.422       .  A
C913        C914   1.403       .  A
C913        F916   1.355       .  S
C914        F918   1.358       .  S
C921        C922   1.406       .  A
C921        C926   1.402   1_455  A
C921        F939   1.358       .  S
C922        C923   1.403       .  A
C922        C927   1.481       .  S
C923        C924   1.401   1_455  A
C923        F928   1.358       .  S
C924        C925   1.408       .  A
C924        F940   1.358       .  S
C925        C926   1.406       .  A
C926        F929   1.358       .  S
C927        C930   1.401       .  A
C927        C934   1.405       .  A
C930        C931   1.395       .  A
C930        F935   1.358       .  S
C931        C932   1.411       .  A
C931        F937   1.357       .  S
C932        C933   1.411       .  A
C933        C934   1.408       .  A
C933        F936   1.357       .  S
C934        F938   1.357       .  S
C941        C942   1.401       .  A
C941        C946   1.394       .  A
C941        F959   1.358       .  S
C942        C943   1.404       .  A
C942        C947   1.471       .  S
C943        C944   1.401       .  A
C943        F948   1.357       .  S
C944        C945   1.405       .  A
C944        F960   1.358       .  S
C945        C946   1.407       .  A
C946        F949   1.358       .  S
C947        C950   1.403       .  A
C947        C954   1.402       .  A
C950        C951   1.398       .  A
C950        F955   1.358       .  S
C951        C952   1.406   1_554  A
C951        F957   1.358   1_554  S
C952        C953   1.406   1_556  A
C953        C954   1.398       .  A
C953        F956   1.358   1_554  S
C954        F958   1.358       .  S
C961        C962   1.402       .  A
C961        C966   1.397       .  A
C961        F979   1.358       .  S
C962        C963   1.406       .  A
C962        C967   1.483       .  S
C963        C964   1.405       .  A
C963        F968   1.357       .  S
C964        C965   1.410       .  A
C964        F980   1.357       .  S
C965        C966   1.412       .  A
C966        F969   1.357       .  S
C967        C970   1.400       .  A
C967        C974   1.398       .  A
C970        C971   1.404       .  A
C970        F975   1.358       .  S
C971        C972   1.428       .  A
C971        F977   1.355       .  S
C972        C973   1.423       .  A
C973        C974   1.396       .  A
C973        F976   1.356       .  S
C974        F978   1.358       .  S
C981        C982   1.406       .  A
C981        C986   1.406       .  A
C981        F999   1.357       .  S
C982        C983   1.403       .  A
C982        C987   1.485       .  S
C983        C984   1.396       .  A
C983        F988   1.358       .  S
C984        C985   1.410       .  A
C984       F1000   1.357       .  S
C985        C986   1.410       .  A
C986        F989   1.357       .  S
C987        C990   1.397       .  A
C987        C994   1.399       .  A
C990        C991   1.400       .  A
C990        F995   1.358       .  S
C991        C992   1.431       .  A
C991        F997   1.355       .  S
C992        C993   1.422       .  A
C993        C994   1.400       .  A
C993        F996   1.353       .  S
C994        F998   1.358       .  S
C1001      C1002   1.405       .  A
C1001      C1006   1.395       .  A
C1001      F1019   1.358       .  S
C1002      C1003   1.407       .  A
C1002      C1007   1.479       .  S
C1003      C1004   1.398       .  A
C1003      F1008   1.358       .  S
C1004      C1005   1.405       .  A
C1004      F1020   1.358       .  S
C1005      C1006   1.404       .  A
C1006      F1009   1.358       .  S
C1007      C1010   1.406       .  A
C1007      C1014   1.404       .  A
C1010      C1011   1.395       .  A
C1010      F1015   1.358       .  S
C1011      C1012   1.407       .  A
C1011      F1017   1.357       .  S
C1012      C1013   1.409       .  A
C1013      C1014   1.398       .  A
C1013      F1016   1.358       .  S
C1014      F1018   1.358       .  S
C1021      C1022   1.409       .  A
C1021      C1026   1.401       .  A
C1021      F1039   1.358       .  S
C1022      C1023   1.404       .  A
C1022      C1027   1.487       .  S
C1023      C1024   1.400       .  A
C1023      F1028   1.358       .  S
C1024      C1025   1.410       .  A
C1024      F1040   1.358       .  S
C1025      C1026   1.405       .  A
C1026      F1029   1.357       .  S
C1027      C1030   1.401       .  A
C1027      C1034   1.400       .  A
C1030      C1031   1.402       .  A
C1030      F1035   1.358       .  S
C1031      C1032   1.424       .  A
C1031      F1037   1.357       .  S
C1032      C1033   1.421       .  A
C1033      C1034   1.398       .  A
C1033      F1036   1.355       .  S
C1034      F1038   1.358       .  S
C1041      C1042   1.406       .  A
C1041      C1046   1.406       .  A
C1041      F1059   1.358       .  S
C1042      C1043   1.402       .  A
C1042      C1047   1.480       .  S
C1043      C1044   1.395   1_545  A
C1043      F1048   1.358       .  S
C1044      C1045   1.409       .  A
C1044      F1060   1.358       .  S
C1045      C1046   1.409   1_565  A
C1046      F1049   1.357   1_545  S
C1047      C1050   1.403       .  A
C1047      C1054   1.405       .  A
C1050      C1051   1.394       .  A
C1050      F1055   1.359       .  S
C1051      C1052   1.408       .  A
C1051      F1057   1.358       .  S
C1052      C1053   1.409       .  A
C1053      C1054   1.407       .  A
C1053      F1056   1.357       .  S
C1054      F1058   1.357       .  S
C1061      C1062   1.395       .  A
C1061      C1066   1.394       .  A
C1061      F1079   1.359       .  S
C1062      C1063   1.400       .  A
C1062      C1067   1.482       .  S
C1063      C1064   1.404       .  A
C1063      F1068   1.358       .  S
C1064      C1065   1.423       .  A
C1064      F1080   1.356       .  S
C1065      C1066   1.431       .  A
C1066      F1069   1.355       .  S
C1067      C1070   1.406       .  A
C1067      C1074   1.403       .  A
C1070      C1071   1.401       .  A
C1070      F1075   1.357       .  S
C1071      C1072   1.407       .  A
C1071      F1077   1.357       .  S
C1072      C1073   1.411       .  A
C1073      C1074   1.398       .  A
C1073      F1076   1.358       .  S
C1074      F1078   1.358       .  S
C1081      C1082   1.403       .  A
C1081      C1086   1.399       .  A
C1081      F1099   1.358       .  S
C1082      C1083   1.408       .  A
C1082      C1087   1.482       .  S
C1083      C1084   1.403       .  A
C1083      F1088   1.358       .  S
C1084      C1085   1.406       .  A
C1084      F1100   1.358       .  S
C1085      C1086   1.408       .  A
C1086      F1089   1.358   1_545  S
C1087      C1090   1.401       .  A
C1087      C1094   1.406       .  A
C1090      C1091   1.394       .  A
C1090      F1095   1.359       .  S
C1091      C1092   1.412       .  A
C1091      F1097   1.357       .  S
C1092      C1093   1.410       .  A
C1093      C1094   1.407       .  A
C1093      F1096   1.357       .  S
C1094      F1098   1.357       .  S
C1101      C1102   1.402       .  A
C1101      C1106   1.400       .  A
C1101      F1119   1.358       .  S
C1102      C1103   1.401       .  A
C1102      C1107   1.475       .  S
C1103      C1104   1.396       .  A
C1103      F1108   1.358       .  S
C1104      C1105   1.411   1_554  A
C1104      F1120   1.357   1_554  S
C1105      C1106   1.412   1_556  A
C1106      F1109   1.356       .  S
C1107      C1110   1.404       .  A
C1107      C1114   1.402       .  A
C1110      C1111   1.403       .  A
C1110      F1115   1.358       .  S
C1111      C1112   1.409       .  A
C1111      F1117   1.358       .  S
C1112      C1113   1.406       .  A
C1113      C1114   1.392       .  A
C1113      F1116   1.358       .  S
C1114      F1118   1.358       .  S
C1121      C1122   1.402       .  A
C1121      C1126   1.395       .  A
C1121      F1139   1.358       .  S
C1122      C1123   1.405       .  A
C1122      C1127   1.477       .  S
C1123      C1124   1.404       .  A
C1123      F1128   1.357       .  S
C1124      C1125   1.408       .  A
C1124      F1140   1.357       .  S
C1125      C1126   1.409       .  A
C1126      F1129   1.358       .  S
C1127      C1130   1.394       .  A
C1127      C1134   1.403       .  A
C1130      C1131   1.390       .  A
C1130      F1135   1.359       .  S
C1131      C1132   1.425       .  A
C1131      F1137   1.357       .  S
C1132      C1133   1.421       .  A
C1133      C1134   1.405       .  A
C1133      F1136   1.355       .  S
C1134      F1138   1.358       .  S
