geometry optimzed in LAMMPS
_audit_creation_date              2020-12-01 
_audit_creation_method            'lammps2cif' 
_symmetry_space_group_name_H-M    'P1' 
_symmetry_Int_Tables_number       1 
_symmetry_cell_setting            triclinic 
loop_ 
_symmetry_equiv_pos_as_xyz 
  x,y,z 
_cell_length_a                    103.52700268 
_cell_length_b                    103.4316038027847 
_cell_length_c                    103.65112060015419 
_cell_angle_alpha                 90.16052902474622 
_cell_angle_beta                  90.06928735522632 
_cell_angle_gamma                 90.06640769079087 
loop_ 
_atom_site_label 
_atom_site_type_symbol 
_atom_site_fract_x 
_atom_site_fract_y 
_atom_site_fract_z 
_atom_site_charge 
O1          O  0.92817638  0.67932447  0.81212326    -0.57100
C2          C  0.89732825  0.67311649  0.78867645     0.75600
O3          O  0.89350815  0.68671195  0.81604585    -0.58200
C4          C  0.93135741  0.68758131  0.82061539     0.75500
C5          C  0.91904096  0.70961046  0.78107897     0.77900
Cd6        Cd  0.91123124  0.69292485  0.80208134     1.37500
O7          O  0.90809413  0.67070141  0.79402957    -0.57100
O8          O  0.92438400  0.69878825  0.78304040    -0.55900
C9          C  0.89099148  0.69778915  0.82049551     0.77900
O10         O  0.91056912  0.71297430  0.78921618    -0.58200
O11         O  0.89376158  0.68478855  0.78884631    -0.56700
O12         O  0.92609725  0.69854931  0.81961336    -0.56700
O13         O  0.89782593  0.70706214  0.81630494    -0.55900
O14         O  0.94628152  0.63544337  0.93507744    -0.57100
C15         C  0.96240012  0.65469675  0.90533537     0.75600
O16         O  0.98828101  0.63778240  0.93919934    -0.58200
C17         C  0.94866832  0.62544306  0.94177615     0.75500
C18         C  0.97656814  0.61610917  0.90994120     0.77900
Cd19       Cd  0.96860693  0.63726904  0.92620196     1.37500
O20         O  0.95355456  0.64921415  0.91177488    -0.57100
O21         O  0.96739969  0.61524831  0.91789500    -0.55900
C22         C  0.98541898  0.64768790  0.94578183     0.77900
O23         O  0.98272872  0.62666963  0.90991040    -0.58200
O24         O  0.97381883  0.65291899  0.90926763    -0.56700
O25         O  0.96019737  0.62147868  0.94146333    -0.56700
O26         O  0.97498859  0.65329148  0.94278078    -0.55900
O27         O  0.92547429  0.54036594  0.82610425    -0.57100
C28         C  0.95372471  0.54818664  0.84945675     0.75600
O29         O  0.92312640  0.51360759  0.85390569    -0.58200
C30         C  0.91779469  0.53149837  0.82254721     0.75500
C31         C  0.95875607  0.50890146  0.83227141     0.77900
Cd32       Cd  0.93858510  0.52653438  0.84067188     1.37500
O33         O  0.94605086  0.54930366  0.83998129    -0.57100
O34         O  0.95551750  0.51870470  0.82574365    -0.55900
C35         C  0.92262806  0.52169679  0.86307287     0.77900
O36         O  0.95202782  0.50672180  0.84220628    -0.58200
O37         O  0.95476139  0.53701940  0.85430480    -0.56700
O38         O  0.92060816  0.52025918  0.82636489    -0.56700
O39         O  0.92979401  0.53151526  0.86203921    -0.55900
O40         O  0.82387992  0.56702706  0.80268435    -0.57100
C41         C  0.79961009  0.59838413  0.80956755     0.75600
O42         O  0.82556075  0.59813371  0.77497975    -0.58200
C43         C  0.83167829  0.56361855  0.79390767     0.75500
C44         C  0.79227464  0.57610587  0.77294787     0.77900
Cd45       Cd  0.81306156  0.58396532  0.78974719     1.37500
O46         O  0.80442354  0.58737647  0.81195080    -0.57100
O47         O  0.79419449  0.57083325  0.78377687    -0.55900
C48         C  0.83196725  0.60331830  0.78404772     0.77900
O49         O  0.80044521  0.58459728  0.76965922    -0.58200
O50         O  0.80053346  0.60217315  0.79801103    -0.56700
O51         O  0.82981379  0.56863408  0.78294754    -0.56700
O52         O  0.82934459  0.59952367  0.79532340    -0.55900
O53         O  0.81121620  0.66990443  0.91668062    -0.57100
C54         C  0.82294549  0.69190301  0.88723201     0.75600
O55         O  0.78430271  0.66965637  0.88379200    -0.58200
C56         C  0.80280971  0.66118489  0.91829100     0.75500
C57         C  0.78469409  0.70246570  0.90642026     0.77900
Cd58       Cd  0.80010931  0.68061978  0.89845964     1.37500
O59         O  0.82355818  0.68395451  0.89646355    -0.57100
O60         O  0.79496948  0.69948224  0.91230382    -0.55900
C61         C  0.79295027  0.66482763  0.87661312     0.77900
O62         O  0.78133668  0.69496175  0.89736235    -0.58200
O63         O  0.81168962  0.69525644  0.88382874    -0.56700
O64         O  0.79273738  0.66218948  0.91145360    -0.56700
O65         O  0.80449229  0.66730011  0.87968352    -0.55900
O66         O  0.83380989  0.56743050  0.94439609    -0.57100
C67         C  0.86158882  0.54181218  0.93358156     0.75600
O68         O  0.86668379  0.56623769  0.97017917    -0.58200
C69         C  0.83310007  0.57661511  0.95247688     0.75500
C70         C  0.84149776  0.53400222  0.97133073     0.77900
Cd71       Cd  0.85082899  0.55515052  0.95562098     1.37500
O72         O  0.85224747  0.54962633  0.93229328    -0.57100
O73         O  0.83584218  0.53711306  0.96097497    -0.55900
C74         C  0.87417873  0.56920607  0.96097901     0.77900
O75         O  0.85071508  0.54127797  0.97479519    -0.58200
O76         O  0.86524178  0.53971174  0.94504094    -0.56700
O77         O  0.83980138  0.57531915  0.96258745    -0.56700
O78         O  0.87084511  0.56552241  0.94984451    -0.55900
O79         O  0.08131065  0.93964936  0.32657516    -0.57100
C80         C  0.05519002  0.93059695  0.35550698     0.75600
O81         O  0.08100379  0.94430601  0.36215123    -0.58200
C82         C  0.09020661  0.94801542  0.32547970     0.75500
C83         C  0.04879507  0.96812075  0.33364594     0.77900
Cd84       Cd  0.06909600  0.95146959  0.34351739     1.37500
O85         O  0.06138687  0.92881959  0.34507379    -0.57100
O86         O  0.05124469  0.95720493  0.32870111    -0.55900
C87         C  0.08487126  0.95521448  0.36604065     0.77900
O88         O  0.05608349  0.97156191  0.34287443    -0.58200
O89         O  0.05462445  0.94214361  0.35948546    -0.56700
O90         O  0.08862775  0.95829966  0.33187526    -0.56700
O91         O  0.08114544  0.96497025  0.35962883    -0.55900
O92         O  0.18302462  0.91123498  0.29842613    -0.57100
C93         C  0.20704706  0.88248150  0.30496456     0.75600
O94         O  0.17786124  0.88046082  0.27083554    -0.58200
C95         C  0.17346293  0.91357001  0.29119608     0.75500
C96         C  0.21164427  0.90260319  0.26635540     0.77900
Cd97       Cd  0.19221325  0.89423858  0.28460381     1.37500
O98         O  0.20061431  0.89270633  0.30696172    -0.57100
O99         O  0.20891854  0.90909788  0.27635221    -0.55900
C100        C  0.17388074  0.87358073  0.28011233     0.77900
O101        O  0.20485231  0.89261410  0.26440711    -0.58200
O102        O  0.20716945  0.87829619  0.29349059    -0.56700
O103        O  0.17350139  0.90811221  0.28025619    -0.56700
O104        O  0.17869965  0.87617419  0.29102224    -0.55900
O105        O  0.05832284  0.81273413  0.41713807    -0.57100
C106        C  0.06852585  0.84262353  0.44084152     0.75600
O107        O  0.03322220  0.84743880  0.41635242    -0.58200
C108        C  0.05042059  0.81123973  0.40791639     0.75500
C109        C  0.03060096  0.82302100  0.44882415     0.77900
Cd110      Cd  0.04697210  0.83095118  0.42758396     1.37500
O111        O  0.06993861  0.83224975  0.43445879    -0.57100
O112        O  0.04145874  0.81783751  0.44670557    -0.55900
C113        C  0.04288393  0.85338186  0.41172012     0.77900
O114        O  0.02698433  0.83132634  0.44064359    -0.58200
O115        O  0.05713228  0.84696366  0.44161431    -0.56700
O116        O  0.04036255  0.81814661  0.40841007    -0.56700
O117        O  0.05383961  0.84870154  0.41433037    -0.55900
O118        O  0.09045241  0.79008065  0.31715964    -0.57100
C119        C  0.11495957  0.79861534  0.28906772     0.75600
O120        O  0.11873750  0.76217202  0.31585558    -0.58200
C121        C  0.08636135  0.78100294  0.32421089     0.75500
C122        C  0.09632786  0.76080376  0.28168123     0.77900
Cd123      Cd  0.10456253  0.77688894  0.30313623     1.37500
O124        O  0.10398758  0.79945395  0.29447806    -0.57100
O125        O  0.08983990  0.77048282  0.28536235    -0.55900
C126        C  0.12701932  0.77085977  0.31837693     0.77900
O127        O  0.10601903  0.75802226  0.28858235    -0.58200
O128        O  0.12043581  0.78774536  0.28982981    -0.56700
O129        O  0.09007092  0.76978423  0.32102173    -0.56700
O130        O  0.12487331  0.78189273  0.31369053    -0.55900
O131        O  0.20002734  0.81258227  0.40938544    -0.57100
C132        C  0.19478099  0.78522314  0.38243187     0.75600
O133        O  0.22930770  0.81482173  0.38166276    -0.58200
C134        C  0.20827123  0.82080878  0.41315523     0.75500
C135        C  0.23101168  0.78037323  0.40436159     0.77900
Cd136      Cd  0.21460387  0.80072595  0.39449885     1.37500
O137        O  0.19239552  0.79212676  0.39226703    -0.57100
O138        O  0.22013679  0.78291547  0.40930202    -0.55900
C139        C  0.22089307  0.81750109  0.37320293     0.77900
O140        O  0.23468174  0.78783675  0.39543387    -0.58200
O141        O  0.20640015  0.78523896  0.37862056    -0.56700
O142        O  0.21964153  0.81910127  0.40903627    -0.56700
O143        O  0.21009830  0.81191288  0.37428753    -0.55900
O144        O  0.17329668  0.91335772  0.44401841    -0.57100
C145        C  0.14635154  0.93779329  0.43757786     0.75600
O146        O  0.14550794  0.90744707  0.47144073    -0.58200
C147        C  0.17619335  0.90414906  0.45151690     0.75500
C148        C  0.16621085  0.94510141  0.47561095     0.77900
Cd149      Cd  0.15779193  0.92404458  0.45872290     1.37500
O150        O  0.15623769  0.93074746  0.43593060    -0.57100
O151        O  0.17286087  0.94137048  0.46607622    -0.55900
C152        C  0.13628327  0.90696411  0.46338587     0.77900
O153        O  0.15627125  0.93838893  0.47802532    -0.58200
O154        O  0.14236094  0.93895812  0.44904584    -0.56700
O155        O  0.17159901  0.90485997  0.46281318    -0.56700
O156        O  0.13683426  0.91477849  0.45410165    -0.55900
O157        O  0.33656924  0.06447979  0.93889144    -0.57100
C158        C  0.36555898  0.04067045  0.92908639     0.75600
O159        O  0.36906028  0.06730289  0.96475147    -0.58200
C160        C  0.33509052  0.07373466  0.94677144     0.75500
C161        C  0.34794061  0.03276385  0.96819542     0.77900
Cd162      Cd  0.35444776  0.05384280  0.95090277     1.37500
O163        O  0.35625950  0.04851409  0.92770492    -0.57100
O164        O  0.34123453  0.03505037  0.95821885    -0.55900
C165        C  0.37655420  0.07003490  0.95548578     0.77900
O166        O  0.35684480  0.04079531  0.97052431    -0.58200
O167        O  0.36902585  0.03833215  0.94054245    -0.56700
O168        O  0.34161990  0.07301508  0.95707141    -0.56700
O169        O  0.37369600  0.06524737  0.94466171    -0.55900
O170        O  0.30909072  0.16472430  0.90743925    -0.57100
C171        C  0.31566502  0.19158019  0.88245048     0.75600
O172        O  0.29711229  0.16987449  0.87310972    -0.58200
C173        C  0.30060115  0.15747047  0.91239636     0.75500
C174        C  0.27872281  0.20004315  0.90357228     0.77900
Cd175      Cd  0.29441948  0.17843705  0.89470430     1.37500
O176        O  0.31726801  0.18598145  0.89322852    -0.57100
O177        O  0.28957816  0.19752971  0.90857875    -0.55900
C178        C  0.28690151  0.16326707  0.87256371     0.77900
O179        O  0.27481623  0.19207236  0.89514725    -0.58200
O180        O  0.30432447  0.19141014  0.87792426    -0.56700
O181        O  0.28899882  0.16057471  0.91015403    -0.56700
O182        O  0.27962014  0.16377183  0.88237200    -0.55900
O183        O  0.43019803  0.04613586  0.82360223    -0.57100
C184        C  0.45639256  0.05448066  0.84762908     0.75600
O185        O  0.42797708  0.01789635  0.84798380    -0.58200
C186        C  0.42315735  0.03730132  0.81891372     0.75500
C187        C  0.46604969  0.01617603  0.82943360     0.77900
Cd188      Cd  0.44400129  0.03198187  0.83689080     1.37500
O189        O  0.45139943  0.05492042  0.83645487    -0.57100
O190        O  0.46291689  0.02624621  0.82330589    -0.55900
C191        C  0.42751152  0.02484132  0.85804429     0.77900
O192        O  0.45833897  0.01283298  0.83827657    -0.58200
O193        O  0.45588987  0.04368090  0.85331740    -0.56700
O194        O  0.42661040  0.02586324  0.82151980    -0.56700
O195        O  0.43525792  0.03425989  0.85855115    -0.55900
O196        O  0.32828980  0.06855152  0.79611611    -0.57100
C197        C  0.30447807  0.09984417  0.80465348     0.75600
O198        O  0.33142152  0.10216428  0.77073275    -0.58200
C199        C  0.33708529  0.06643758  0.78787035     0.75500
C200        C  0.29746723  0.08042679  0.76715992     0.77900
Cd201      Cd  0.31850107  0.08707743  0.78430331     1.37500
O202        O  0.31140897  0.09000676  0.80692177    -0.57100
O203        O  0.29920948  0.07456240  0.77772062    -0.55900
C204        C  0.33660980  0.10781530  0.78029671     0.77900
O205        O  0.30606922  0.08858353  0.76412150    -0.58200
O206        O  0.30352154  0.10315885  0.79295716    -0.56700
O207        O  0.33635972  0.07294212  0.77759456    -0.56700
O208        O  0.33317604  0.10397638  0.79133327    -0.55900
O209        O  0.42311672  0.18884926  0.81600406    -0.57100
C210        C  0.39794460  0.18112579  0.78926278     0.75600
O211        O  0.39687335  0.21538195  0.82008610    -0.58200
C212        C  0.42730464  0.19780676  0.82322659     0.75500
C213        C  0.41469389  0.22113697  0.78311709     0.77900
Cd214      Cd  0.40853406  0.20279981  0.80320450     1.37500
O215        O  0.40901091  0.18034536  0.79451914    -0.57100
O216        O  0.42133120  0.21099613  0.78471524    -0.55900
C217        C  0.38745356  0.20760775  0.82061776     0.77900
O218        O  0.40578628  0.22303033  0.79123222    -0.58200
O219        O  0.39244634  0.19201642  0.78991000    -0.56700
O220        O  0.42394028  0.20914516  0.82017966    -0.56700
O221        O  0.38765149  0.19829485  0.81273403    -0.55900
O222        O  0.45266216  0.16437146  0.91697443    -0.57100
C223        C  0.44556552  0.13377172  0.94023176     0.75600
O224        O  0.48001772  0.13393098  0.91206574    -0.58200
C225        C  0.46051720  0.16684302  0.90794287     0.75500
C226        C  0.48321219  0.15323461  0.94797428     0.77900
Cd227      Cd  0.46595160  0.14690317  0.92678435     1.37500
O228        O  0.44379986  0.14495564  0.93555858    -0.57100
O229        O  0.47244024  0.15885997  0.94665758    -0.55900
C230        C  0.47108704  0.12607808  0.90906996     0.77900
O231        O  0.48630392  0.14562364  0.93894750    -0.58200
O232        O  0.45682185  0.12915408  0.93912535    -0.56700
O233        O  0.47118351  0.16095874  0.90843069    -0.56700
O234        O  0.46018038  0.12798447  0.91417019    -0.55900
O235        O  0.19972759  0.16508687  0.58299805    -0.57100
C236        C  0.19194226  0.18899404  0.60757583     0.75600
O237        O  0.22710327  0.16110921  0.60594924    -0.58200
C238        C  0.20812433  0.15868978  0.57688467     0.75500
C239        C  0.22942847  0.20084877  0.58592668     0.77900
Cd240      Cd  0.21470459  0.17886713  0.59528047     1.37500
O241        O  0.19122419  0.18268090  0.59710228    -0.57100
O242        O  0.21778352  0.19897930  0.58278480    -0.55900
C243        C  0.22315126  0.16381417  0.61719137     0.77900
O244        O  0.23453741  0.19204620  0.59266664    -0.58200
O245        O  0.20323217  0.19128520  0.61170231    -0.56700
O246        O  0.21970135  0.16236326  0.57846441    -0.56700
O247        O  0.21651399  0.17395135  0.61814611    -0.55900
O248        O  0.17700560  0.06489635  0.54968815    -0.57100
C249        C  0.14895665  0.03821137  0.55613763     0.75600
O250        O  0.14724184  0.06428826  0.52054306    -0.58200
C251        C  0.17971320  0.07324546  0.54118446     0.75500
C252        C  0.17098928  0.03111047  0.52013451     0.77900
Cd253      Cd  0.16164642  0.05239254  0.53592642     1.37500
O254        O  0.15946773  0.04419443  0.55821923    -0.57100
O255        O  0.17582586  0.03357134  0.53109682    -0.55900
C256        C  0.13997265  0.06857425  0.52941414     0.77900
O257        O  0.16262338  0.03905539  0.51612990    -0.58200
O258        O  0.14473001  0.03851505  0.54469335    -0.56700
O259        O  0.17520739  0.07101319  0.53007101    -0.56700
O260        O  0.14277930  0.06529242  0.54079813    -0.55900
O261        O  0.19842664  0.09100398  0.68445585    -0.57100
C262        C  0.17075852  0.07045555  0.70047462     0.75600
O263        O  0.20374304  0.09166070  0.72552034    -0.58200
C264        C  0.20457405  0.10144206  0.68632279     0.75500
C265        C  0.17178141  0.10967679  0.71271969     0.77900
Cd266      Cd  0.18998973  0.08964596  0.70651266     1.37500
O267        O  0.17862891  0.07441091  0.69200451    -0.57100
O268        O  0.17518426  0.10161663  0.72124321    -0.55900
C269        C  0.21132713  0.08254320  0.72262678     0.77900
O270        O  0.17731003  0.10873132  0.70189334    -0.58200
O271        O  0.17292924  0.07423248  0.71187686    -0.56700
O272        O  0.20423390  0.10603170  0.69764658    -0.56700
O273        O  0.20817312  0.07576409  0.71292719    -0.55900
O274        O  0.07783235  0.04629348  0.66231433    -0.57100
C275        C  0.05157808  0.05271904  0.63564084     0.75600
O276        O  0.08041019  0.01811820  0.63239001    -0.58200
C277        C  0.08658320  0.03833125  0.66530288     0.75500
C278        C  0.04696092  0.01407690  0.65353251     0.77900
Cd279      Cd  0.06691747  0.03226731  0.64641655     1.37500
O280        O  0.05664966  0.05399112  0.64671092    -0.57100
O281        O  0.04994143  0.02339086  0.66089776    -0.55900
C282        C  0.08433906  0.02728165  0.62532411     0.77900
O283        O  0.05387112  0.01275990  0.64357245    -0.58200
O284        O  0.05334920  0.04200398  0.63004319    -0.56700
O285        O  0.08546055  0.02714369  0.66043976    -0.56700
O286        O  0.07992351  0.03836917  0.62796462    -0.55900
O287        O  0.07988219  0.20184442  0.66524052    -0.57100
C288        C  0.10339216  0.17387548  0.69875544     0.75600
O289        O  0.10995135  0.20745237  0.67049496    -0.58200
C290        C  0.07437860  0.19102040  0.66369445     0.75500
C291        C  0.08824868  0.21338830  0.70322538     0.77900
Cd292      Cd  0.09382756  0.19485774  0.68327698     1.37500
O293        O  0.09419288  0.17215367  0.69085387    -0.57100
O294        O  0.08053821  0.20414458  0.70082056    -0.55900
C295        C  0.11598562  0.19746376  0.66679901     0.77900
O296        O  0.09770752  0.21456008  0.69562877    -0.58200
O297        O  0.10736867  0.18535114  0.70010101    -0.56700
O298        O  0.07667870  0.18255391  0.67219091    -0.56700
O299        O  0.11159279  0.18675035  0.67057160    -0.55900
O300        O  0.06044210  0.15845985  0.56854411    -0.57100
C301        C  0.07018983  0.13152007  0.54193521     0.75600
O302        O  0.05313056  0.12401807  0.56727174    -0.58200
C303        C  0.05092496  0.16181425  0.57542924     0.75500
C304        C  0.03455611  0.15195574  0.53229052     0.77900
Cd305      Cd  0.04834672  0.14306371  0.55480319     1.37500
O306        O  0.07149856  0.14147445  0.54899827    -0.57100
O307        O  0.04489831  0.15727683  0.53607387    -0.55900
C308        C  0.04191196  0.12160346  0.57138208     0.77900
O309        O  0.02993555  0.14330766  0.53960132    -0.58200
O310        O  0.05875002  0.12738692  0.54051603    -0.56700
O311        O  0.04004122  0.15753311  0.57184336    -0.56700
O312        O  0.03300651  0.12883156  0.56711862    -0.55900
O313        O  0.58108786  0.18477664  0.16843137    -0.57100
C314        C  0.61218211  0.18152666  0.19161684     0.75600
O315        O  0.61180584  0.21391484  0.16377463    -0.58200
C316        C  0.57601174  0.19269875  0.16063281     0.75500
C317        C  0.59041532  0.21825423  0.19739907     0.77900
Cd318      Cd  0.59730588  0.20008134  0.17723179     1.37500
O319        O  0.60036329  0.17967833  0.18905969    -0.57100
O320        O  0.58486615  0.20740898  0.19624857    -0.55900
C321        C  0.61522736  0.20465005  0.15650271     0.77900
O322        O  0.59837989  0.22111950  0.18858774    -0.58200
O323        O  0.61693138  0.19218519  0.18802032    -0.56700
O324        O  0.57992407  0.20427120  0.16148493    -0.56700
O325        O  0.61030063  0.19374649  0.15894235    -0.55900
O326        O  0.55279992  0.15697981  0.07003217    -0.57100
C327        C  0.56322021  0.12790657  0.04646723     0.75600
O328        O  0.52609515  0.12439905  0.06771157    -0.58200
C329        C  0.54324108  0.16000885  0.07703289     0.75500
C330        C  0.52668572  0.14772098  0.03471396     0.77900
Cd331      Cd  0.54109622  0.14053265  0.05740760     1.37500
O332        O  0.56343775  0.13997451  0.04860677    -0.57100
O333        O  0.53550996  0.15493764  0.03917301    -0.55900
C334        C  0.53443179  0.12124291  0.07613923     0.77900
O335        O  0.52390075  0.13783735  0.04134394    -0.58200
O336        O  0.55272643  0.12212763  0.04878683    -0.56700
O337        O  0.53242111  0.15525561  0.07380866    -0.56700
O338        O  0.54530989  0.12671775  0.07540645    -0.55900
O339        O  0.67959291  0.06535626  0.04822314    -0.57100
C340        C  0.64784477  0.04149847  0.05559488     0.75600
O341        O  0.64416391  0.06563164  0.02394360    -0.58200
C342        C  0.68300379  0.07297153  0.03929530     0.75500
C343        C  0.67055134  0.03388737  0.01995561     0.77900
Cd344      Cd  0.66203078  0.05493443  0.03603759     1.37500
O345        O  0.65913066  0.04575395  0.05783312    -0.57100
O346        O  0.66326420  0.04271723  0.01557658    -0.55900
C347        C  0.64206614  0.07385563  0.03283748     0.77900
O348        O  0.67438562  0.03538027  0.03144227    -0.58200
O349        O  0.64363754  0.04289442  0.04422748    -0.56700
O350        O  0.67743889  0.07134276  0.02851269    -0.56700
O351        O  0.64936030  0.07327702  0.04258299    -0.55900
O352        O  0.70237012  0.16624563  0.07040837    -0.57100
C353        C  0.69037862  0.18949483  0.09956711     0.75600
O354        O  0.72438532  0.17213367  0.10826974    -0.58200
C355        C  0.71181124  0.15882935  0.06793644     0.75500
C356        C  0.72966728  0.19960845  0.08008715     0.77900
Cd357      Cd  0.71325742  0.17831663  0.08783097     1.37500
O358        O  0.68977715  0.18443257  0.08843513    -0.57100
O359        O  0.71854280  0.19792565  0.07527381    -0.55900
C360        C  0.71988675  0.16073803  0.10825790     0.77900
O361        O  0.73349917  0.19091347  0.08772830    -0.58200
O362        O  0.70144056  0.18977259  0.10466646    -0.56700
O363        O  0.72231880  0.16148441  0.07361354    -0.56700
O364        O  0.71258669  0.15772615  0.09897112    -0.55900
O365        O  0.68017812  0.07185004  0.19159635    -0.57100
C366        C  0.70339955  0.10146080  0.18081475     0.75600
O367        O  0.67749783  0.10860586  0.19664435    -0.58200
C368        C  0.67164013  0.06974437  0.20004444     0.75500
C369        C  0.71269477  0.08296087  0.21799799     0.77900
Cd370      Cd  0.69060823  0.09031190  0.20269996     1.37500
O371        O  0.70591537  0.10495599  0.19224968    -0.57100
O372        O  0.71080359  0.07850742  0.20677098    -0.55900
C373        C  0.67503932  0.11274307  0.20783308     0.77900
O374        O  0.70386731  0.09014169  0.22244960    -0.58200
O375        O  0.69521569  0.09241387  0.17948562    -0.56700
O376        O  0.67254224  0.07650627  0.21019500    -0.56700
O377        O  0.67962266  0.10631197  0.21716594    -0.55900
O378        O  0.57981776  0.04469298  0.16548552    -0.57100
C379        C  0.55424356  0.04966782  0.13511053     0.75600
O380        O  0.58126425  0.01773288  0.13306007    -0.58200
C381        C  0.58742320  0.03606057  0.16966114     0.75500
C382        C  0.54832103  0.01412637  0.15738878     0.77900
Cd383      Cd  0.56902591  0.03091386  0.14925667     1.37500
O384        O  0.55808243  0.05201691  0.14651118    -0.57100
O385        O  0.54941225  0.02563541  0.16140012    -0.55900
C386        C  0.58801326  0.02731883  0.12941630     0.77900
O387        O  0.55733773  0.01004882  0.15017065    -0.58200
O388        O  0.55698945  0.03863321  0.13060020    -0.56700
O389        O  0.58549227  0.02472286  0.16545485    -0.56700
O390        O  0.58571068  0.03800809  0.13483856    -0.55900
O391        O  0.91897138  0.28949509  0.16581699    -0.57100
C392        C  0.89607318  0.29424018  0.19368396     0.75600
O393        O  0.88513204  0.27655513  0.16996360    -0.58200
C394        C  0.92332151  0.28158734  0.15759024     0.75500
C395        C  0.91831155  0.25751075  0.19810089     0.77900
Cd396      Cd  0.90676920  0.27364161  0.17843807     1.37500
O397        O  0.90593818  0.29609831  0.18669168    -0.57100
O398        O  0.92353683  0.26786649  0.19432347    -0.55900
C399        C  0.88473836  0.26674731  0.16269776     0.77900
O400        O  0.90830792  0.25403380  0.19196292    -0.58200
O401        O  0.89182754  0.28277411  0.19419009    -0.56700
O402        O  0.92071472  0.26979036  0.15951296    -0.56700
O403        O  0.89434185  0.25920982  0.16337941    -0.55900
O404        O  0.94224202  0.34499893  0.05603535    -0.57100
C405        C  0.95866879  0.32175045  0.07735699     0.75600
O406        O  0.98598813  0.34242714  0.04636323    -0.58200
C407        C  0.94335265  0.35291962  0.04680096     0.75500
C408        C  0.97327007  0.36237483  0.07666137     0.77900
Cd409      Cd  0.96577580  0.34172392  0.05932770     1.37500
O410        O  0.95083715  0.32595102  0.06895753    -0.57100
O411        O  0.96675159  0.36433819  0.06656742    -0.55900
C412        C  0.98353016  0.33250192  0.03963350     0.77900
O413        O  0.97696121  0.35087427  0.07842125    -0.58200
O414        O  0.97004997  0.32615293  0.07675035    -0.56700
O415        O  0.95476825  0.35508696  0.04306535    -0.56700
O416        O  0.97318160  0.32669000  0.04243961    -0.55900
O417        O  0.83846427  0.41561941  0.05004214    -0.57100
C418        C  0.85987230  0.44353621  0.05650229     0.75600
O419        O  0.87166943  0.42318058  0.03404013    -0.58200
C420        C  0.83104846  0.41004962  0.04207626     0.75500
C421        C  0.83961994  0.44980080  0.01748817     0.77900
Cd422      Cd  0.84910995  0.42991398  0.03461799     1.37500
O423        O  0.84927592  0.43745213  0.05733801    -0.57100
O424        O  0.83460763  0.44771927  0.02841277    -0.55900
C425        C  0.86997132  0.41274248  0.02792296     0.77900
O426        O  0.84854820  0.44215826  0.01415169    -0.58200
O427        O  0.86486401  0.44403844  0.04537073    -0.56700
O428        O  0.83125058  0.41437993  0.03065662    -0.56700
O429        O  0.85876082  0.41094913  0.02342405    -0.55900
O430        O  0.80772102  0.31558113  0.07477435    -0.57100
C431        C  0.81580437  0.28731421  0.10089872     0.75600
O432        O  0.78266237  0.31637528  0.10762354    -0.58200
C433        C  0.79949775  0.32454508  0.07342408     0.75500
C434        C  0.77795753  0.28372434  0.08252089     0.77900
Cd435      Cd  0.79546030  0.30363962  0.09150865     1.37500
O436        O  0.81801860  0.29550026  0.09205348    -0.57100
O437        O  0.78866909  0.28580352  0.07706230    -0.55900
C438        C  0.79219135  0.31834222  0.11506915     0.77900
O439        O  0.77490557  0.29162014  0.09136752    -0.58200
O440        O  0.80426689  0.28659946  0.10480917    -0.56700
O441        O  0.78911733  0.32321078  0.07966785    -0.56700
O442        O  0.80280050  0.31340469  0.11166612    -0.55900
O443        O  0.83435158  0.40626445  0.19642055    -0.57100
C444        C  0.80952944  0.37817361  0.18821223     0.75600
O445        O  0.83702794  0.37534348  0.22313789    -0.58200
C446        C  0.84243582  0.40959950  0.20498991     0.75500
C447        C  0.80199507  0.39823489  0.22500158     0.77900
Cd448      Cd  0.82335017  0.38983754  0.20928994     1.37500
O449        O  0.81578903  0.38859435  0.18673147    -0.57100
O450        O  0.80559148  0.40426588  0.21504823    -0.55900
C451        C  0.84161564  0.36938982  0.21345296     0.77900
O452        O  0.80891236  0.38867172  0.22826359    -0.58200
O453        O  0.80916646  0.37374240  0.19958446    -0.56700
O454        O  0.84080433  0.40467894  0.21602643    -0.56700
O455        O  0.83717714  0.37255568  0.20256690    -0.55900
O456        O  0.93024662  0.43807215  0.16311880    -0.57100
C457        C  0.95542265  0.43135113  0.13822504     0.75600
O458        O  0.93075015  0.44821555  0.12724216    -0.58200
C459        C  0.92312131  0.44647167  0.16838401     0.75500
C460        C  0.96191150  0.47040930  0.15362346     0.77900
Cd461      Cd  0.94097102  0.45278497  0.14802153     1.37500
O462        O  0.94900109  0.43041676  0.14857630    -0.57100
O463        O  0.95955372  0.46088606  0.16087140    -0.55900
C464        C  0.92289615  0.45753069  0.12723325     0.77900
O465        O  0.95380928  0.47242740  0.14471333    -0.58200
O466        O  0.95549640  0.44230427  0.13282008    -0.56700
O467        O  0.92498986  0.45805644  0.16490928    -0.56700
O468        O  0.92344718  0.46507418  0.13685830    -0.55900
O469        O  0.92593825  0.18690517  0.31719894    -0.57100
C470        C  0.89813817  0.18006743  0.29266760     0.75600
O471        O  0.89843875  0.21598272  0.32126950    -0.58200
C472        C  0.93044068  0.19553615  0.32464690     0.75500
C473        C  0.91880008  0.21651582  0.28435991     0.77900
Cd474      Cd  0.91032991  0.20113718  0.30610147     1.37500
O475        O  0.90766377  0.17824293  0.30012717    -0.57100
O476        O  0.92502287  0.20671871  0.28817489    -0.55900
C477        C  0.88980108  0.20769458  0.32384822     0.77900
O478        O  0.90918767  0.21969380  0.29119108    -0.58200
O479        O  0.89475590  0.19170425  0.29101601    -0.56700
O480        O  0.92629997  0.20688224  0.32280527    -0.56700
O481        O  0.89053149  0.19708207  0.31786745    -0.55900
O482        O  0.95684401  0.16400580  0.41736604    -0.57100
C483        C  0.94758647  0.13630274  0.44309867     0.75600
O484        O  0.98018056  0.13081460  0.41399378    -0.58200
C485        C  0.96529809  0.16604610  0.40880196     0.75500
C486        C  0.98742642  0.15270567  0.44808908     0.77900
Cd487      Cd  0.96862131  0.14650844  0.42823106     1.37500
O488        O  0.94640480  0.14696298  0.43719131    -0.57100
O489        O  0.97741947  0.15953626  0.44637550    -0.55900
C490        C  0.96994448  0.12498639  0.41057115     0.77900
O491        O  0.98899068  0.14354934  0.44013652    -0.58200
O492        O  0.95866081  0.13113264  0.44282627    -0.56700
O493        O  0.97589567  0.16014498  0.41025939    -0.56700
O494        O  0.95953460  0.12909451  0.41536290    -0.55900
O495        O  0.83298323  0.07623961  0.29429464    -0.57100
C496        C  0.80774110  0.09954370  0.30175005     0.75600
O497        O  0.83762072  0.09986689  0.26680468    -0.58200
C498        C  0.84054017  0.07166735  0.28587587     0.75500
C499        C  0.79872112  0.08144388  0.26290964     0.77900
Cd500      Cd  0.82005431  0.08914787  0.27927862     1.37500
O501        O  0.81250380  0.08826579  0.30194816    -0.57100
O502        O  0.80143750  0.07536919  0.27310850    -0.55900
C503        C  0.83615753  0.11075271  0.27222177     0.77900
O504        O  0.80663852  0.09017921  0.25973464    -0.58200
O505        O  0.80831099  0.10542109  0.29107466    -0.56700
O506        O  0.83782051  0.07422241  0.27424486    -0.56700
O507        O  0.82697131  0.11158024  0.28016288    -0.55900
O508        O  0.93222743  0.04459869  0.32402959    -0.57100
C509        C  0.95766469  0.05130100  0.34938286     0.75600
O510        O  0.92800196  0.01635278  0.35068344    -0.58200
C511        C  0.92376294  0.03655055  0.32035139     0.75500
C512        C  0.96459529  0.01336913  0.32859291     0.77900
Cd513      Cd  0.94403569  0.02971584  0.33830119     1.37500
O514        O  0.95086286  0.05249487  0.33928910    -0.57100
O515        O  0.96144320  0.02376515  0.32303576    -0.55900
C516        C  0.92809664  0.02377204  0.36042848     0.77900
O517        O  0.95761323  0.01005466  0.33802520    -0.58200
O518        O  0.95881725  0.03991455  0.35370448    -0.56700
O519        O  0.92527732  0.02509332  0.32428585    -0.56700
O520        O  0.93595494  0.03308793  0.35999533    -0.55900
O521        O  0.84334180  0.06461855  0.44388547    -0.57100
C522        C  0.87084837  0.03978917  0.43560311     0.75600
O523        O  0.87291651  0.06854125  0.47081231    -0.58200
C524        C  0.83946514  0.07233839  0.45254959     0.75500
C525        C  0.85218975  0.03130204  0.47268024     0.77900
Cd526      Cd  0.85961704  0.05330456  0.45717863     1.37500
O527        O  0.86079243  0.04669997  0.43436708    -0.57100
O528        O  0.84804649  0.03302403  0.46135110    -0.55900
C529        C  0.88100766  0.07070901  0.46190685     0.77900
O530        O  0.85910284  0.04024984  0.47741698    -0.58200
O531        O  0.87542877  0.03884615  0.44690390    -0.56700
O532        O  0.84405969  0.07045722  0.46368578    -0.56700
O533        O  0.87939066  0.06445821  0.45158076    -0.55900
O534        O  0.81371728  0.16426592  0.41550335    -0.57100
C535        C  0.82116023  0.19061655  0.38722547     0.75600
O536        O  0.80888379  0.16143944  0.38151421    -0.58200
C537        C  0.80558013  0.15554659  0.41817211     0.75500
C538        C  0.78279362  0.19572383  0.40435269     0.77900
Cd539      Cd  0.80090710  0.17512947  0.39853667     1.37500
O540        O  0.82272445  0.18540286  0.39818530    -0.57100
O541        O  0.79305747  0.19414974  0.41082999    -0.55900
C542        C  0.79811146  0.15796797  0.37696931     0.77900
O543        O  0.78029966  0.18695907  0.39619350    -0.58200
O544        O  0.81030369  0.18887216  0.38191107    -0.56700
O545        O  0.79466739  0.15672688  0.41277009    -0.56700
O546        O  0.78815946  0.16231116  0.38263334    -0.55900
O547        O  0.68330387  0.90601622  0.79224171    -0.57100
C548        C  0.70750969  0.87817671  0.79882014     0.75600
O549        O  0.68485845  0.86826186  0.78250111    -0.58200
C550        C  0.67307990  0.90737886  0.78567933     0.75500
C551        C  0.71285517  0.89742759  0.75978510     0.77900
Cd552      Cd  0.69323238  0.88956131  0.77799683     1.37500
O553        O  0.70163229  0.88884192  0.80027816    -0.57100
O554        O  0.71028352  0.90408166  0.76969098    -0.55900
C555        C  0.67662350  0.86785064  0.77351583     0.77900
O556        O  0.70549668  0.88787587  0.75774263    -0.58200
O557        O  0.70737408  0.87347353  0.78756725    -0.56700
O558        O  0.67280863  0.90151140  0.77495374    -0.56700
O559        O  0.67663235  0.87731881  0.76579026    -0.55900
O560        O  0.58208683  0.93603297  0.82508245    -0.57100
C561        C  0.55458567  0.93173345  0.85197684     0.75600
O562        O  0.58606017  0.96442103  0.85307598    -0.58200
C563        C  0.59060556  0.94411956  0.82161454     0.75500
C564        C  0.55076820  0.96891456  0.83203567     0.77900
Cd565      Cd  0.57074717  0.95093123  0.84012209     1.37500
O566        O  0.56020822  0.92938855  0.84134172    -0.57100
O567        O  0.55317485  0.95872807  0.82566907    -0.55900
C568        C  0.58850536  0.95559773  0.86117424     0.77900
O569        O  0.55835540  0.97122941  0.84132249    -0.58200
O570        O  0.55625837  0.94291109  0.85664251    -0.56700
O571        O  0.58901140  0.95553793  0.82566431    -0.56700
O572        O  0.58235794  0.94513101  0.85973368    -0.55900
O573        O  0.70328761  0.81525507  0.91359421    -0.57100
C574        C  0.69480971  0.79020269  0.88698112     0.75600
O575        O  0.72943602  0.81844211  0.88210141    -0.58200
C576        C  0.71108966  0.82436347  0.91595480     0.75500
C577        C  0.73449477  0.78467607  0.90442175     0.77900
Cd578      Cd  0.71636522  0.80460417  0.89691703     1.37500
O579        O  0.69448658  0.79528593  0.89810517    -0.57100
O580        O  0.72523298  0.78802394  0.91163992    -0.55900
C581        C  0.71980081  0.82165534  0.87527008     0.77900
O582        O  0.73573060  0.79105212  0.89411447    -0.58200
O583        O  0.70543495  0.79090358  0.88100371    -0.56700
O584        O  0.72188555  0.82368152  0.91025949    -0.56700
O585        O  0.70908130  0.81681883  0.87850896    -0.55900
O586        O  0.67457970  0.91662749  0.94150250    -0.57100
C587        C  0.64883092  0.94358399  0.93443071     0.75600
O588        O  0.63945487  0.91910409  0.95039374    -0.58200
C589        C  0.67804322  0.90866063  0.95009701     0.75500
C590        C  0.66790282  0.94985725  0.97252489     0.77900
Cd591      Cd  0.65980765  0.92918543  0.95550549     1.37500
O592        O  0.65923151  0.93722667  0.93307394    -0.57100
O593        O  0.67389395  0.94720320  0.96221322    -0.55900
C594        C  0.63840660  0.91233256  0.96043901     0.77900
O595        O  0.65877667  0.94227539  0.97541461    -0.58200
O596        O  0.64402421  0.94368039  0.94564585    -0.56700
O597        O  0.67414792  0.91110568  0.96138606    -0.56700
O598        O  0.64700348  0.91389294  0.96900614    -0.55900
O599        O  0.58576413  0.79530659  0.82138058    -0.57100
C600        C  0.61200614  0.80073943  0.79493292     0.75600
O601        O  0.61336115  0.76760514  0.82577069    -0.58200
C602        C  0.58081347  0.78684153  0.82862015     0.75500
C603        C  0.59325200  0.76338146  0.78959883     0.77900
Cd604      Cd  0.60060575  0.78073655  0.81009173     1.37500
O605        O  0.60226321  0.80308976  0.80198460    -0.57100
O606        O  0.58790457  0.77429240  0.79103923    -0.55900
C607        C  0.62216175  0.77601812  0.82708344     0.77900
O608        O  0.60105298  0.76010323  0.79838720    -0.58200
O609        O  0.61587143  0.78914723  0.79455348    -0.56700
O610        O  0.58423003  0.77530124  0.82644267    -0.56700
O611        O  0.62094839  0.78618001  0.82051584    -0.55900
O612        O  0.55590653  0.82330791  0.91931880    -0.57100
C613        C  0.56578000  0.85194882  0.94340992     0.75600
O614        O  0.52932908  0.85574409  0.91884126    -0.58200
C615        C  0.54727362  0.82086707  0.91100651     0.75500
C616        C  0.52870470  0.83169946  0.95152188     0.77900
Cd617      Cd  0.54410436  0.84056098  0.93031840     1.37500
O618        O  0.56699908  0.84167068  0.93682763    -0.57100
O619        O  0.53948691  0.82667562  0.94884723    -0.55900
C620        C  0.53854303  0.86226994  0.91411026     0.77900
O621        O  0.52473311  0.84036228  0.94388043    -0.58200
O622        O  0.55448805  0.85653960  0.94423308    -0.56700
O623        O  0.53681145  0.82702676  0.91218985    -0.56700
O624        O  0.54983840  0.85875956  0.91708447    -0.55900
O625        O  0.58879298  0.29223424  0.31519028    -0.57100
C626        C  0.61812339  0.30036258  0.29113236     0.75600
O627        O  0.62091109  0.26450970  0.31660560    -0.58200
C628        C  0.58751568  0.28481626  0.32478487     0.75500
C629        C  0.59589268  0.26349513  0.28296539     0.77900
Cd630      Cd  0.60571805  0.27921630  0.30427247     1.37500
O631        O  0.60837885  0.30217796  0.29829215    -0.57100
O632        O  0.59160890  0.27469493  0.28537199    -0.55900
C633        C  0.62837592  0.27376283  0.31972160     0.77900
O634        O  0.60399531  0.25916967  0.29101995    -0.58200
O635        O  0.62141634  0.28868923  0.28944638    -0.56700
O636        O  0.59368571  0.27427894  0.32416934    -0.56700
O637        O  0.62527697  0.28478394  0.31560441    -0.55900
O638        O  0.56006133  0.32275378  0.41729156    -0.57100
C639        C  0.56572976  0.34968298  0.44400101     0.75600
O640        O  0.53128672  0.35100854  0.41455602    -0.58200
C641        C  0.55208856  0.31969111  0.40851028     0.75500
C642        C  0.52873459  0.32962480  0.44976667     0.77900
Cd643      Cd  0.54553590  0.33773909  0.42893200     1.37500
O644        O  0.56789673  0.33955759  0.43741000    -0.57100
O645        O  0.53837346  0.32292083  0.44636543    -0.55900
C646        C  0.54016154  0.35912960  0.41221945     0.77900
O647        O  0.52613995  0.33916270  0.44259730    -0.58200
O648        O  0.55424748  0.35381857  0.44391340    -0.56700
O649        O  0.54070073  0.32384248  0.41002720    -0.56700
O650        O  0.55085137  0.35726027  0.41774373    -0.55900
O651        O  0.67559015  0.41288180  0.43907257    -0.57100
C652        C  0.65045659  0.43604341  0.42815120     0.75600
O653        O  0.63639024  0.42050271  0.45241100    -0.58200
C654        C  0.67909383  0.40532766  0.44800541     0.75500
C655        C  0.66746786  0.44694807  0.46795698     0.77900
Cd656      Cd  0.65972114  0.42511599  0.45203206     1.37500
O657        O  0.65384947  0.44301264  0.43759755    -0.57100
O658        O  0.67417901  0.44330406  0.45842630    -0.55900
C659        C  0.63682105  0.41103537  0.46007586     0.77900
O660        O  0.65786899  0.43986136  0.47066699    -0.58200
O661        O  0.65228667  0.42400998  0.42942516    -0.56700
O662        O  0.67460794  0.40785001  0.45905556    -0.56700
O663        O  0.64778222  0.40870907  0.46490476    -0.55900
O664        O  0.70686501  0.31320304  0.41215072    -0.57100
C665        C  0.69835448  0.28914369  0.38339465     0.75600
O666        O  0.73381482  0.31554260  0.38037650    -0.58200
C667        C  0.71489553  0.32198069  0.41495784     0.75500
C668        C  0.73595097  0.28109652  0.40300748     0.77900
Cd669      Cd  0.71969341  0.30264881  0.39527645     1.37500
O670        O  0.69665290  0.29616301  0.39328120    -0.57100
O671        O  0.72552487  0.28381379  0.40874109    -0.55900
C672        C  0.72437511  0.31964251  0.37374596     0.77900
O673        O  0.73936121  0.28898734  0.39432238    -0.58200
O674        O  0.70994018  0.28788347  0.37971504    -0.56700
O675        O  0.72585678  0.32098484  0.40963294    -0.56700
O676        O  0.71334206  0.31567654  0.37706711    -0.55900
O677        O  0.68223327  0.40917235  0.29685839    -0.57100
C678        C  0.71049473  0.38287705  0.30361999     0.75600
O679        O  0.68372017  0.37910221  0.26914131    -0.58200
C680        C  0.67448348  0.41224100  0.28793569     0.75500
C681        C  0.71588658  0.40379571  0.26725315     0.77900
Cd682      Cd  0.69546309  0.39446670  0.28353022     1.37500
O683        O  0.70464958  0.39348772  0.30562744    -0.57100
O684        O  0.71350773  0.40893952  0.27808914    -0.55900
C685        C  0.68039230  0.37177868  0.27835307     0.77900
O686        O  0.70814276  0.39506542  0.26356886    -0.58200
O687        O  0.70979012  0.37833021  0.29231386    -0.56700
O688        O  0.67720531  0.40796979  0.27682263    -0.56700
O689        O  0.68399013  0.37508273  0.28951938    -0.55900
O690        O  0.58053491  0.43459134  0.32054912    -0.57100
C691        C  0.55742120  0.42740520  0.34860345     0.75600
O692        O  0.57782302  0.45414925  0.35840806    -0.58200
C693        C  0.58814035  0.44317845  0.31619899     0.75500
C694        C  0.55005338  0.46703603  0.32867452     0.77900
Cd695      Cd  0.57006537  0.44890101  0.33626819     1.37500
O696        O  0.56105090  0.42646621  0.33696591    -0.57100
O697        O  0.55120331  0.45608234  0.32338635    -0.55900
C698        C  0.58973331  0.45402173  0.35565116     0.77900
O699        O  0.55867250  0.46994528  0.33685810    -0.58200
O700        O  0.55957609  0.43810100  0.35410102    -0.56700
O701        O  0.58624902  0.45462308  0.32013348    -0.56700
O702        O  0.59234888  0.45251894  0.34387494    -0.55900
O703        O  0.30209865  0.31794971  0.57673850    -0.57100
C704        C  0.31140574  0.29487029  0.60529391     0.75600
O705        O  0.29715915  0.32274396  0.61071968    -0.58200
C706        C  0.29341210  0.32565124  0.57299909     0.75500
C707        C  0.27268498  0.28711891  0.58831330     0.77900
Cd708      Cd  0.28972283  0.30822987  0.59425959     1.37500
O709        O  0.31208680  0.30021381  0.59432250    -0.57100
O710        O  0.28229700  0.28995241  0.58134191    -0.55900
C711        C  0.28635113  0.32711645  0.61425729     0.77900
O712        O  0.27053593  0.29462291  0.59771957    -0.58200
O713        O  0.30045855  0.29506096  0.61069460    -0.56700
O714        O  0.28252355  0.32446903  0.57842467    -0.56700
O715        O  0.27649840  0.32267235  0.60847161    -0.55900
O716        O  0.33168931  0.41424648  0.54890003    -0.57100
C717        C  0.35778684  0.44231363  0.55689090     0.75600
O718        O  0.36279864  0.41382214  0.52299305    -0.58200
C719        C  0.32737704  0.40769396  0.53949094     0.75500
C720        C  0.34204841  0.44738377  0.51867473     0.77900
Cd721      Cd  0.34758311  0.42663270  0.53637079     1.37500
O722        O  0.34658024  0.43745903  0.55785197    -0.57100
O723        O  0.33478099  0.44506796  0.52822399    -0.55900
C724        C  0.36825007  0.40839174  0.53248123     0.77900
O725        O  0.35109692  0.43939882  0.51683409    -0.58200
O726        O  0.36376389  0.44004365  0.54650206    -0.56700
O727        O  0.33152347  0.41087909  0.52848244    -0.56700
O728        O  0.36424112  0.41162934  0.54354385    -0.55900
O729        O  0.44431351  0.43357284  0.64548862    -0.57100
C730        C  0.41863171  0.45237479  0.66676325     0.75600
O731        O  0.45105737  0.47582499  0.64409797    -0.58200
C732        C  0.45059315  0.43485264  0.63508658     0.75500
C733        C  0.42017404  0.46099335  0.62543839     0.77900
Cd734      Cd  0.43747127  0.45646746  0.64663872     1.37500
O735        O  0.42715310  0.44401789  0.66407202    -0.57100
O736        O  0.42477362  0.45003989  0.62813371    -0.55900
C737        C  0.45875366  0.47337393  0.65326256     0.77900
O738        O  0.42350600  0.47032072  0.63267283    -0.58200
O739        O  0.41958140  0.46302989  0.66089595    -0.56700
O740        O  0.45146856  0.44625480  0.63077199    -0.56700
O741        O  0.45603757  0.46352478  0.65993648    -0.55900
O742        O  0.31150357  0.39888060  0.68367551    -0.57100
C743        C  0.33604845  0.41916652  0.70249223     0.75600
O744        O  0.30284733  0.39523471  0.72534905    -0.58200
C745        C  0.30402139  0.38920732  0.68459297     0.75500
C746        C  0.33535905  0.37803726  0.71183209     0.77900
Cd747      Cd  0.31736055  0.39894037  0.70686689     1.37500
O748        O  0.32839218  0.41542589  0.69371502    -0.57100
O749        O  0.32806994  0.37841414  0.70206726    -0.55900
C750        C  0.29554616  0.40483197  0.72348486     0.77900
O751        O  0.33393433  0.38710977  0.71992133    -0.58200
O752        O  0.33412222  0.41448700  0.71360227    -0.56700
O753        O  0.30261884  0.38449220  0.69573886    -0.56700
O754        O  0.29900696  0.41240671  0.71455403    -0.55900
O755        O  0.42518955  0.30241637  0.66758065    -0.57100
C756        C  0.39899198  0.30914835  0.69455712     0.75600
O757        O  0.39572744  0.27524461  0.66489854    -0.58200
C758        C  0.42944696  0.29358995  0.66027779     0.75500
C759        C  0.41575278  0.27123993  0.70022788     0.77900
Cd760      Cd  0.40977989  0.28868430  0.67936961     1.37500
O761        O  0.41014901  0.31042522  0.68965370    -0.57100
O762        O  0.42289455  0.28087914  0.69780116    -0.55900
C763        C  0.38845386  0.28462315  0.66190673     0.77900
O764        O  0.40669396  0.26915842  0.69230807    -0.58200
O765        O  0.39333251  0.29848642  0.69263140    -0.56700
O766        O  0.42546173  0.28226899  0.66266599    -0.56700
O767        O  0.39114631  0.29539677  0.66700560    -0.55900
O768        O  0.45361152  0.32466617  0.56629159    -0.57100
C769        C  0.44500393  0.35219895  0.53959335     0.75600
O770        O  0.47689754  0.35810061  0.56851204    -0.58200
C771        C  0.46202138  0.32327812  0.57508947     0.75500
C772        C  0.48309436  0.33355667  0.53493522     0.77900
Cd773      Cd  0.46548303  0.34174406  0.55482271     1.37500
O774        O  0.44356513  0.34156678  0.54553347    -0.57100
O775        O  0.47327181  0.32697479  0.53805919    -0.55900
C776        C  0.46645282  0.36359199  0.57188405     0.77900
O777        O  0.48532803  0.34353372  0.54171071    -0.58200
O778        O  0.45618732  0.35709425  0.53992576    -0.56700
O779        O  0.47247759  0.32940808  0.57358135    -0.56700
O780        O  0.45616583  0.35906030  0.56716832    -0.55900
O781        O  0.80907421  0.81099236  0.56754191    -0.57100
C782        C  0.81846027  0.78346326  0.59605290     0.75600
O783        O  0.78580616  0.81084138  0.60126548    -0.58200
C784        C  0.79958365  0.81837412  0.56524228     0.75500
C785        C  0.78091076  0.77750027  0.57821237     0.77900
Cd786      Cd  0.79804031  0.79849104  0.58461903     1.37500
O787        O  0.82027428  0.78925275  0.58541709    -0.57100
O788        O  0.79111011  0.77961391  0.57182222    -0.55900
C789        C  0.79581067  0.81653473  0.60551569     0.77900
O790        O  0.77810933  0.78588113  0.58670814    -0.58200
O791        O  0.80721263  0.78427016  0.60073950    -0.56700
O792        O  0.78905365  0.81538274  0.57066545    -0.56700
O793        O  0.80640369  0.81349861  0.60030042    -0.55900
O794        O  0.83242633  0.91243278  0.54636871    -0.57100
C795        C  0.86403366  0.93336507  0.55342318     0.75600
O796        O  0.86345350  0.90422642  0.53780954    -0.58200
C797        C  0.82766113  0.90536793  0.53757546     0.75500
C798        C  0.84465378  0.94570010  0.51842619     0.77900
Cd799      Cd  0.84940682  0.92218422  0.53281610     1.37500
O800        O  0.85231964  0.93013718  0.55510012    -0.57100
O801        O  0.84334672  0.94502501  0.53051917    -0.55900
C802        C  0.86852121  0.90273900  0.52683693     0.77900
O803        O  0.84708843  0.93518988  0.51260120    -0.58200
O804        O  0.86867314  0.93143622  0.54229806    -0.56700
O805        O  0.83176295  0.90746540  0.52628484    -0.56700
O806        O  0.86460195  0.91030356  0.51805022    -0.55900
O807        O  0.92354156  0.78694938  0.66386869    -0.57100
C808        C  0.89584380  0.79338344  0.69043180     0.75600
O809        O  0.89494126  0.75815265  0.66247163    -0.58200
C810        C  0.92538637  0.77895544  0.65477556     0.75500
C811        C  0.91707238  0.75719944  0.69709624     0.77900
Cd812      Cd  0.90814154  0.77314189  0.67597569     1.37500
O813        O  0.90639933  0.79550576  0.68456907    -0.57100
O814        O  0.92329746  0.76717276  0.69375103    -0.55900
C815        C  0.88631013  0.76655230  0.66023287     0.77900
O816        O  0.90772679  0.75402800  0.68987844    -0.58200
O817        O  0.89143247  0.78202118  0.68966066    -0.56700
O818        O  0.92018173  0.76797382  0.65611331    -0.56700
O819        O  0.88777150  0.77748428  0.66549207    -0.55900
O820        O  0.95164278  0.82428718  0.56656261    -0.57100
C821        C  0.94633414  0.84952847  0.54310932     0.75600
O822        O  0.97803802  0.84285569  0.57491714    -0.58200
C823        C  0.95937501  0.81723920  0.57288241     0.75500
C824        C  0.98451119  0.82681653  0.53325352     0.77900
Cd825      Cd  0.96814243  0.83590945  0.55418319     1.37500
O826        O  0.94694337  0.83730437  0.54261783    -0.57100
O827        O  0.97374137  0.82165602  0.53569069    -0.55900
C828        C  0.97819716  0.85479368  0.57233540     0.77900
O829        O  0.98799393  0.83571168  0.54089717    -0.58200
O830        O  0.95589250  0.85518308  0.54817212    -0.56700
O831        O  0.97118312  0.81819056  0.56987990    -0.56700
O832        O  0.97489398  0.85773608  0.56095159    -0.55900
O833        O  0.83381461  0.90471854  0.68916278    -0.57100
C834        C  0.80806703  0.87741889  0.67901244     0.75600
O835        O  0.83286541  0.86947927  0.69486477    -0.58200
C836        C  0.84158880  0.90734039  0.69824244     0.75500
C837        C  0.79859906  0.89681450  0.71540489     0.77900
Cd838      Cd  0.82089532  0.88851703  0.70092302     1.37500
O839        O  0.81421837  0.88799343  0.67798264    -0.57100
O840        O  0.80178649  0.90212266  0.70490064    -0.55900
C841        C  0.83574140  0.86558019  0.70603408     0.77900
O842        O  0.80630096  0.88837719  0.71973522    -0.58200
O843        O  0.80743720  0.87267319  0.69020669    -0.56700
O844        O  0.83915509  0.90198274  0.70891988    -0.56700
O845        O  0.83166456  0.87239429  0.71537182    -0.55900
O846        O  0.93428246  0.93282262  0.66426773    -0.57100
C847        C  0.95966161  0.92469097  0.63471995     0.75600
O848        O  0.92928067  0.93673435  0.63072938    -0.58200
C849        C  0.92574250  0.94117056  0.66688195     0.75500
C850        C  0.96416538  0.96347250  0.65340459     0.77900
Cd851      Cd  0.94443187  0.94494311  0.64641137     1.37500
O852        O  0.95326192  0.92267043  0.64494560    -0.57100
O853        O  0.96270320  0.95296012  0.65948524    -0.55900
C854        C  0.92666477  0.94730404  0.62525953     0.77900
O855        O  0.95590190  0.96572611  0.64470092    -0.58200
O856        O  0.95952637  0.93611841  0.63044117    -0.56700
O857        O  0.92669005  0.95176730  0.66086431    -0.56700
O858        O  0.93228812  0.95727680  0.62966665    -0.55900
O859        O  0.67764023  0.57539192  0.69831230    -0.57100
C860        C  0.70103562  0.60173607  0.68756719     0.75600
O861        O  0.68154413  0.61446316  0.70599630    -0.58200
C862        C  0.66753992  0.57506764  0.70516782     0.75500
C863        C  0.70888103  0.58221277  0.72644988     0.77900
Cd864      Cd  0.68855983  0.59261108  0.71043678     1.37500
O865        O  0.69238106  0.59309666  0.68716785    -0.57100
O866        O  0.70492282  0.57646169  0.71643449    -0.55900
C867        C  0.67455215  0.61610954  0.71580818     0.77900
O868        O  0.70285418  0.59238685  0.72953713    -0.58200
O869        O  0.70454441  0.60543036  0.69869406    -0.56700
O870        O  0.66762098  0.58223144  0.71506845    -0.56700
O871        O  0.67449026  0.60695538  0.72393460    -0.55900
O872        O  0.57979241  0.55055354  0.65709245    -0.57100
C873        C  0.55355018  0.55658625  0.63469179     0.75600
O874        O  0.57435238  0.53521254  0.62368888    -0.58200
C875        C  0.58641462  0.54264023  0.66355350     0.75500
C876        C  0.54455634  0.51893067  0.65375808     0.77900
Cd877      Cd  0.56630987  0.53473420  0.64576141     1.37500
O878        O  0.55843141  0.55731821  0.64589535    -0.57100
O879        O  0.54713152  0.52957946  0.65921452    -0.55900
C880        C  0.58267072  0.52637409  0.62474057     0.77900
O881        O  0.55263311  0.51512830  0.64545231    -0.58200
O882        O  0.55430824  0.54576277  0.62903986    -0.56700
O883        O  0.58298177  0.53090382  0.66267707    -0.56700
O884        O  0.58314132  0.52071791  0.63555510    -0.55900
O885        O  0.58445493  0.69042104  0.66960893    -0.57100
C886        C  0.61250221  0.68546018  0.69552476     0.75600
O887        O  0.61143251  0.71886073  0.66444124    -0.58200
C888        C  0.57965635  0.69889440  0.66220902     0.75500
C889        C  0.59286525  0.72170837  0.70202988     0.77900
Cd890      Cd  0.59979312  0.70520386  0.68067901     1.37500
O891        O  0.60153080  0.68349922  0.69040644    -0.57100
O892        O  0.58645775  0.71168994  0.69917397    -0.55900
C893        C  0.61984987  0.71027634  0.66210874     0.77900
O894        O  0.60169724  0.72484655  0.69418665    -0.58200
O895        O  0.61721968  0.69666046  0.69411371    -0.56700
O896        O  0.58332753  0.71039156  0.66422329    -0.56700
O897        O  0.61902204  0.69997329  0.66855914    -0.55900
O898        O  0.57043512  0.64888640  0.54773929    -0.57100
C899        C  0.54835556  0.66851368  0.57666235     0.75600
O900        O  0.52871626  0.64562021  0.54228161    -0.58200
C901        C  0.56892555  0.63793396  0.54235064     0.75500
C902        C  0.54373232  0.62827046  0.57286739     0.77900
Cd903      Cd  0.54754532  0.64956797  0.55593622     1.37500
O904        O  0.55760328  0.66736165  0.56871373    -0.57100
O905        O  0.55483560  0.63231091  0.56979501    -0.55900
C906        C  0.53049852  0.65483381  0.53448284     0.77900
O907        O  0.53416544  0.63396405  0.56779927    -0.58200
O908        O  0.53834230  0.66195756  0.57414329    -0.56700
O909        O  0.55768694  0.63319927  0.54288141    -0.56700
O910        O  0.53971305  0.66244366  0.53722490    -0.55900
O911        O  0.69843177  0.66376972  0.57542163    -0.57100
C912        C  0.68985452  0.69105198  0.60087503     0.75600
O913        O  0.72431363  0.66042415  0.60497438    -0.58200
C914        C  0.70684342  0.65519978  0.57309331     0.75500
C915        C  0.72995311  0.69515011  0.58459140     0.77900
Cd916      Cd  0.71134856  0.67562841  0.59182820     1.37500
O917        O  0.68831894  0.68269393  0.59201334    -0.57100
O918        O  0.72067010  0.69205918  0.57722235    -0.55900
C919        C  0.71617739  0.65976845  0.61403511     0.77900
O920        O  0.73095122  0.68867015  0.59484482    -0.58200
O921        O  0.70126886  0.69249875  0.60496676    -0.56700
O922        O  0.71766838  0.65681639  0.57852728    -0.56700
O923        O  0.70610345  0.66651819  0.61283225    -0.55900
O924        O  0.67600565  0.56262138  0.54329106    -0.57100
C925        C  0.64577236  0.54039002  0.55485756     0.75600
O926        O  0.63823128  0.56591391  0.53919030    -0.58200
C927        C  0.67713319  0.57203902  0.53555967     0.75500
C928        C  0.66255160  0.53210607  0.51459089     0.77900
Cd929      Cd  0.65664628  0.55306912  0.53244434     1.37500
O930        O  0.64222170  0.53763547  0.54349099    -0.57100
O931        O  0.65271857  0.53923455  0.51337191    -0.55900
C932        C  0.63548041  0.57078700  0.52839447     0.77900
O933        O  0.67024308  0.53521780  0.52359979    -0.58200
O934        O  0.65518827  0.54816877  0.55583213    -0.56700
O935        O  0.66965055  0.57180605  0.52593154    -0.56700
O936        O  0.64247442  0.56732035  0.51897052    -0.55900
O937        O  0.43007701  0.93875726  0.16126027    -0.57100
C938        C  0.45946068  0.93439687  0.13520653     0.75600
O939        O  0.43057430  0.96695205  0.13123300    -0.58200
C940        C  0.42197582  0.94710703  0.16505592     0.75500
C941        C  0.46281483  0.96932504  0.15696431     0.77900
Cd942      Cd  0.44250427  0.95305408  0.14703055     1.37500
O943        O  0.45252178  0.93127205  0.14481023    -0.57100
O944        O  0.46025199  0.95840680  0.16183697    -0.55900
C945        C  0.42723919  0.95742432  0.12423493     0.77900
O946        O  0.45505750  0.97330872  0.14839427    -0.58200
O947        O  0.45866274  0.94602024  0.13159342    -0.56700
O948        O  0.42409780  0.95862866  0.16154640    -0.56700
O949        O  0.43076195  0.94639832  0.12802651    -0.55900
O950        O  0.32931012  0.90919885  0.18973337    -0.57100
C951        C  0.30415424  0.88225554  0.18286090     0.75600
O952        O  0.33325220  0.88227700  0.21766773    -0.58200
C953        C  0.33764916  0.91260286  0.19800723     0.75500
C954        C  0.29607633  0.90296865  0.21983816     0.77900
Cd955      Cd  0.31746618  0.89426442  0.20395534     1.37500
O956        O  0.30986252  0.89303395  0.18144930    -0.57100
O957        O  0.29888874  0.90847220  0.20934324    -0.55900
C958        C  0.33438705  0.87293505  0.20981344     0.77900
O959        O  0.30380972  0.89421352  0.22344284    -0.58200
O960        O  0.30417943  0.87759842  0.19412912    -0.56700
O961        O  0.33593743  0.90838236  0.20932391    -0.56700
O962        O  0.32727590  0.87322411  0.19992934    -0.55900
O963        O  0.42640484  0.79869531  0.17097780    -0.57100
C964        C  0.39915843  0.80419038  0.19351226     0.75600
O965        O  0.40205552  0.76992176  0.16253996    -0.58200
C966        C  0.43140361  0.79113012  0.16280075     0.75500
C967        C  0.41879813  0.76526813  0.20131689     0.77900
Cd968      Cd  0.41164082  0.78283682  0.18070787     1.37500
O969        O  0.40944375  0.80572718  0.18709684    -0.57100
O970        O  0.42491944  0.77568769  0.19940487    -0.55900
C971        C  0.39148053  0.77605665  0.16256024     0.77900
O972        O  0.41004660  0.76268006  0.19321899    -0.58200
O973        O  0.39522149  0.79266265  0.19469356    -0.56700
O974        O  0.42814241  0.77936024  0.16371774    -0.56700
O975        O  0.39037032  0.78472952  0.17104651    -0.55900
O976        O  0.45732501  0.83531806  0.07392458    -0.57100
C977        C  0.45102698  0.85514476  0.04386948     0.75600
O978        O  0.48771043  0.85705921  0.07192384    -0.58200
C979        C  0.46545580  0.82872492  0.08019170     0.75500
C980        C  0.48792275  0.83378839  0.03766126     0.77900
Cd981      Cd  0.47231564  0.84453658  0.05811130     1.37500
O982        O  0.45028358  0.84379247  0.04843102    -0.57100
O983        O  0.47724064  0.82880819  0.04087999    -0.55900
C984        C  0.48058767  0.86700134  0.07234999     0.77900
O985        O  0.49169513  0.84326066  0.04442096    -0.58200
O986        O  0.46168832  0.86095234  0.04533561    -0.56700
O987        O  0.47681384  0.82870110  0.07571435    -0.56700
O988        O  0.47051561  0.86663420  0.06549101    -0.55900
O989        O  0.31251867  0.81580250  0.07148923    -0.57100
C990        C  0.32236095  0.79054415  0.09923884     0.75600
O991        O  0.28635285  0.81563403  0.10383349    -0.58200
C992        C  0.30337753  0.82331968  0.06843165     0.75500
C993        C  0.28429162  0.78265301  0.08109043     0.77900
Cd994      Cd  0.30062982  0.80396092  0.08829911     1.37500
O995        O  0.32330003  0.79656209  0.08865151    -0.57100
O996        O  0.29476842  0.78489771  0.07524396    -0.55900
C997        C  0.29569890  0.82104776  0.10961969     0.77900
O998        O  0.28110139  0.79073617  0.08969834    -0.58200
O999        O  0.31123987  0.79021323  0.10429097    -0.56700
O1000       O  0.29262874  0.82099225  0.07369830    -0.56700
O1001       O  0.30687610  0.81832125  0.10558479    -0.55900
O1002       O  0.33717703  0.91575654  0.04512469    -0.57100
C1003       C  0.36729051  0.94025541  0.05271539     0.75600
O1004       O  0.36957615  0.91518671  0.01773376    -0.58200
C1005       C  0.33351872  0.90824834  0.03616648     0.75500
C1006       C  0.34744859  0.94795320  0.01561837     0.77900
Cd1007     Cd  0.35407672  0.92662723  0.03224720     1.37500
O1008       O  0.35559093  0.93689011  0.05396002    -0.57100
O1009       O  0.34094371  0.94537214  0.02560637    -0.55900
C1010       C  0.37323844  0.90744904  0.02647664     0.77900
O1011       O  0.35635983  0.94004435  0.01287222    -0.58200
O1012       O  0.37255008  0.93740907  0.04208865    -0.56700
O1013       O  0.33833576  0.91035230  0.02514412    -0.56700
O1014       O  0.36804831  0.90875330  0.03742749    -0.55900
O1015       O  0.42222008  0.68490513  0.31850995    -0.57100
C1016       C  0.39768991  0.68111215  0.29175358     0.75600
O1017       O  0.39929872  0.71437621  0.32438278    -0.58200
C1018       C  0.42753169  0.69291552  0.32609732     0.75500
C1019       C  0.41643982  0.71806700  0.28591521     0.77900
Cd1020     Cd  0.40921506  0.70109789  0.30684882     1.37500
O1021       O  0.40865428  0.67940310  0.29696382    -0.57100
O1022       O  0.42398030  0.70925945  0.28976784    -0.55900
C1023       C  0.38952788  0.70709641  0.32557075     0.77900
O1024       O  0.40638245  0.71982455  0.29260935    -0.58200
O1025       O  0.39246090  0.69201146  0.29346042    -0.56700
O1026       O  0.42551354  0.70474567  0.32366368    -0.56700
O1027       O  0.38858438  0.69790523  0.31758044    -0.55900
O1028       O  0.44027528  0.63922546  0.44122590    -0.57100
C1029       C  0.45706224  0.66113144  0.41223017     0.75600
O1030       O  0.48209383  0.63985647  0.44435449    -0.58200
C1031       C  0.44245158  0.62811282  0.44591332     0.75500
C1032       C  0.46715046  0.62286796  0.41171167     0.77900
Cd1033     Cd  0.46208536  0.64161825  0.43149435     1.37500
O1034       O  0.44841024  0.65804367  0.42033569    -0.57100
O1035       O  0.47609682  0.63015560  0.41584530    -0.55900
C1036       C  0.47971237  0.64924365  0.45183348     0.77900
O1037       O  0.45643099  0.62363585  0.41748774    -0.58200
O1038       O  0.46806712  0.65626594  0.41412654    -0.56700
O1039       O  0.45374819  0.62372917  0.44426835    -0.56700
O1040       O  0.46948319  0.65552357  0.44948334    -0.55900
O1041       O  0.33033559  0.57199491  0.29356670    -0.57100
C1042       C  0.30654466  0.60196860  0.30110445     0.75600
O1043       O  0.33163986  0.60410408  0.26613209    -0.58200
C1044       C  0.33922234  0.56953179  0.28556895     0.75500
C1045       C  0.29759908  0.58179167  0.26413262     0.77900
Cd1046     Cd  0.31944438  0.58884451  0.28040073     1.37500
O1047       O  0.31077961  0.59056510  0.30265912    -0.57100
O1048       O  0.29973458  0.57633667  0.27482945    -0.55900
C1049       C  0.33602644  0.61051912  0.27563406     0.77900
O1050       O  0.30610632  0.58978911  0.26049632    -0.58200
O1051       O  0.30786920  0.60668428  0.28997102    -0.56700
O1052       O  0.33817274  0.57505656  0.27472929    -0.56700
O1053       O  0.33277591  0.60665379  0.28670925    -0.55900
O1054       O  0.45343658  0.55570866  0.33513703    -0.57100
C1055       C  0.42432248  0.53761092  0.31888960     0.75600
O1056       O  0.46021440  0.51470469  0.33930659    -0.58200
C1057       C  0.45937884  0.55556981  0.34583561     0.75500
C1058       C  0.42965694  0.52654884  0.35915129     0.77900
Cd1059     Cd  0.44546316  0.53313921  0.33693944     1.37500
O1060       O  0.43172638  0.54655329  0.32278523    -0.57100
O1061       O  0.43213799  0.51829435  0.35045406    -0.55900
C1062       C  0.46677278  0.51644301  0.32919626     0.77900
O1063       O  0.43468516  0.53757612  0.35766106    -0.58200
O1064       O  0.42738814  0.52633954  0.32245916    -0.56700
O1065       O  0.45920975  0.54502195  0.35197327    -0.56700
O1066       O  0.46308164  0.52563061  0.32203980    -0.55900
O1067       O  0.31011884  0.66584166  0.41393349    -0.57100
C1068       C  0.31975716  0.69205749  0.38837194     0.75600
O1069       O  0.28475892  0.66409052  0.38279798    -0.58200
C1070       C  0.30255493  0.65620302  0.41409488     0.75500
C1071       C  0.28001027  0.69763833  0.40607924     0.77900
Cd1072     Cd  0.29781241  0.67791883  0.39746640     1.37500
O1073       O  0.32065072  0.68450133  0.39794453    -0.57100
O1074       O  0.29000900  0.69483707  0.41249755    -0.55900
C1075       C  0.29377061  0.66259562  0.37468814     0.77900
O1076       O  0.27789141  0.69066013  0.39626029    -0.58200
O1077       O  0.30860126  0.69356637  0.38360642    -0.56700
O1078       O  0.29218678  0.65742222  0.40779156    -0.56700
O1079       O  0.30400497  0.66889415  0.37686749    -0.55900
O1080       O  0.34089856  0.56072053  0.43168994    -0.57100
C1081       C  0.36468850  0.53170584  0.42810371     0.75600
O1082       O  0.36561949  0.56079672  0.46265488    -0.58200
C1083       C  0.33627311  0.56866573  0.43972574     0.75500
C1084       C  0.34274179  0.52793780  0.46544492     0.77900
Cd1085     Cd  0.35258705  0.54723020  0.44766464     1.37500
O1086       O  0.35336750  0.53609722  0.42650600    -0.57100
O1087       O  0.33736781  0.52989808  0.45465346    -0.55900
C1088       C  0.37458245  0.56280330  0.45458458     0.77900
O1089       O  0.35198896  0.53545325  0.46820406    -0.58200
O1090       O  0.36968348  0.53357832  0.43910110    -0.56700
O1091       O  0.33805560  0.56588836  0.45147379    -0.56700
O1092       O  0.37329349  0.55744452  0.44371449    -0.55900
O1093       O  0.18009054  0.57050531  0.18721909    -0.57100
C1094       C  0.20480195  0.59955303  0.17977650     0.75600
O1095       O  0.17699729  0.60484054  0.19330401    -0.58200
C1096       C  0.17166453  0.56734744  0.19545652     0.75500
C1097       C  0.21213816  0.58043128  0.21736138     0.77900
Cd1098     Cd  0.19078167  0.58738699  0.20042951     1.37500
O1099       O  0.19896556  0.58889232  0.17806527    -0.57100
O1100       O  0.21004797  0.57467771  0.20675999    -0.55900
C1101       C  0.17299863  0.60845426  0.20422763     0.77900
O1102       O  0.20376947  0.58872473  0.22064775    -0.58200
O1103       O  0.20462887  0.60410729  0.19111066    -0.56700
O1104       O  0.17298485  0.57243355  0.20651056    -0.56700
O1105       O  0.17736267  0.60237266  0.21390713    -0.55900
O1106       O  0.08064191  0.54319600  0.15570595    -0.57100
C1107       C  0.05724082  0.55218492  0.12592085     0.75600
O1108       O  0.08649558  0.53616865  0.12353142    -0.58200
C1109       C  0.08858642  0.53444454  0.15886086     0.75500
C1110       C  0.04788110  0.51491614  0.14602833     0.77900
Cd1111     Cd  0.06975273  0.53068124  0.13852798     1.37500
O1112       O  0.06144286  0.55311190  0.13736915    -0.57100
O1113       O  0.05103929  0.52508523  0.15207409    -0.55900
C1114       C  0.08912631  0.52491675  0.11959068     0.77900
O1115       O  0.05527047  0.51161966  0.13687200    -0.58200
O1116       O  0.05848422  0.54124072  0.12057312    -0.56700
O1117       O  0.08680939  0.52354559  0.15359667    -0.56700
O1118       O  0.08217567  0.51578425  0.12390508    -0.55900
O1119       O  0.06137109  0.66605689  0.06052882    -0.57100
C1120       C  0.06811254  0.63724650  0.03507105     0.75600
O1121       O  0.03500900  0.63404249  0.06455191    -0.58200
C1122       C  0.05256173  0.67046253  0.06774830     0.75500
C1123       C  0.03035726  0.65512003  0.03038400     0.77900
Cd1124     Cd  0.04825638  0.64880250  0.05070940     1.37500
O1125       O  0.06993819  0.64801052  0.04066355    -0.57100
O1126       O  0.04018774  0.66205020  0.03267439    -0.55900
C1127       C  0.04467406  0.62929383  0.07037258     0.77900
O1128       O  0.02842562  0.64588919  0.03812474    -0.58200
O1129       O  0.05712779  0.63213265  0.03657783    -0.56700
O1130       O  0.04146799  0.66551273  0.06621882    -0.56700
O1131       O  0.05561798  0.63336924  0.06685827    -0.55900
O1132       O  0.08597631  0.69087339  0.15959904    -0.57100
C1133       C  0.11276093  0.68075541  0.18799553     0.75600
O1134       O  0.11898486  0.71545694  0.16209217    -0.58200
C1135       C  0.08386906  0.70045324  0.15227468     0.75500
C1136       C  0.09426746  0.71831069  0.19474623     0.77900
Cd1137     Cd  0.10232638  0.70202086  0.17338820     1.37500
O1138       O  0.10195880  0.67951213  0.18227894    -0.57100
O1139       O  0.08799402  0.70829398  0.19150633    -0.55900
C1140       C  0.12472348  0.70572218  0.15732740     0.77900
O1141       O  0.10370704  0.72125098  0.18756823    -0.58200
O1142       O  0.11813964  0.69167368  0.18703187    -0.56700
O1143       O  0.08942022  0.71085466  0.15549858    -0.56700
O1144       O  0.12018493  0.69478552  0.16030254    -0.55900
O1145       O  0.20560834  0.66660832  0.07106384    -0.57100
C1146       C  0.19831117  0.69168510  0.09752511     0.75600
O1147       O  0.21613920  0.67006582  0.10823932    -0.58200
C1148       C  0.21426600  0.65920956  0.06657762     0.75500
C1149       C  0.23640287  0.69869348  0.07902269     0.77900
Cd1150     Cd  0.21964480  0.67790169  0.08648309     1.37500
O1151       O  0.19664862  0.68467102  0.08756816    -0.57100
O1152       O  0.22545943  0.69695095  0.07388662    -0.55900
C1153       C  0.22408518  0.66084675  0.10811223     0.77900
O1154       O  0.24005833  0.69019171  0.08698094    -0.58200
O1155       O  0.20977943  0.69258414  0.10160960    -0.56700
O1156       O  0.22561583  0.66126803  0.07058572    -0.56700
O1157       O  0.23098217  0.65993757  0.09808680    -0.55900
O1158       O  0.17396782  0.56891380  0.04100739    -0.57100
C1159       C  0.14653849  0.54327278  0.04654734     0.75600
O1160       O  0.14618580  0.57204892  0.01190458    -0.58200
C1161       C  0.17823303  0.57691025  0.03285492     0.75500
C1162       C  0.16750660  0.53634114  0.01068571     0.77900
Cd1163     Cd  0.15899766  0.55767593  0.02649815     1.37500
O1164       O  0.14125410  0.54557764  0.03579212    -0.57100
O1165       O  0.17365050  0.53983456  0.02064919    -0.55900
C1166       C  0.13801487  0.57501773  0.02053174     0.77900
O1167       O  0.15811575  0.54345316  0.00748437    -0.58200
O1168       O  0.15801166  0.54733459  0.04802757    -0.56700
O1169       O  0.17423480  0.57540290  0.02140032    -0.56700
O1170       O  0.13956844  0.56979132  0.03142626    -0.55900
O1171       O  0.07532272  0.43376693  0.82816001    -0.57100
C1172       C  0.04947150  0.42704369  0.85687209     0.75600
O1173       O  0.07819922  0.44188708  0.86059931    -0.58200
C1174       C  0.08324102  0.44252773  0.82496393     0.75500
C1175       C  0.04313917  0.46351066  0.83356105     0.77900
Cd1176     Cd  0.06331105  0.44726808  0.84372670     1.37500
O1177       O  0.05449596  0.42523150  0.84585904    -0.57100
O1178       O  0.04491594  0.45210391  0.82952844    -0.55900
C1179       C  0.07974174  0.45310024  0.86517918     0.77900
O1180       O  0.05111098  0.46756929  0.84192348    -0.58200
O1181       O  0.05006720  0.43845070  0.86125371    -0.56700
O1182       O  0.08124261  0.45362353  0.82968124    -0.56700
O1183       O  0.07384699  0.46222285  0.85952785    -0.55900
O1184       O  0.17855781  0.41533358  0.79669677    -0.57100
C1185       C  0.20211738  0.38803882  0.80815911     0.75600
O1186       O  0.17514505  0.38264623  0.77180292    -0.58200
C1187       C  0.16862434  0.41587171  0.78961908     0.75500
C1188       C  0.20949713  0.40491398  0.76811629     0.77900
Cd1189     Cd  0.18889434  0.39725004  0.78537585     1.37500
O1190       O  0.19390533  0.39709650  0.80877939    -0.57100
O1191       O  0.20604911  0.41189754  0.77752022    -0.55900
C1192       C  0.17302519  0.37473802  0.78088310     0.77900
O1193       O  0.20273345  0.39489813  0.76617268    -0.58200
O1194       O  0.20472158  0.38389022  0.79696719    -0.56700
O1195       O  0.16882967  0.40884952  0.77960667    -0.56700
O1196       O  0.17847804  0.37722525  0.79149023    -0.55900
O1197       O  0.09318628  0.29440671  0.82181511    -0.57100
C1198       C  0.11334427  0.30156205  0.79323283     0.75600
O1199       O  0.11500204  0.26531842  0.82312870    -0.58200
C1200       C  0.08671866  0.28605887  0.82791269     0.75500
C1201       C  0.09463580  0.26304131  0.78621007     0.77900
Cd1202     Cd  0.10382543  0.27941290  0.80705607     1.37500
O1203       O  0.10276461  0.30201016  0.79934183    -0.57100
O1204       O  0.08874243  0.27321281  0.78952262    -0.55900
C1205       C  0.12535932  0.27181060  0.82336245     0.77900
O1206       O  0.10422171  0.26001103  0.79315404    -0.58200
O1207       O  0.11897938  0.29070175  0.79303124    -0.56700
O1208       O  0.08688422  0.27465380  0.82344779    -0.56700
O1209       O  0.12595345  0.28105109  0.81543925    -0.55900
O1210       O  0.06007475  0.31589645  0.92171420    -0.57100
C1211       C  0.06824130  0.34351285  0.94807307     0.75600
O1212       O  0.03253887  0.34565437  0.92112813    -0.58200
C1213       C  0.05127525  0.31362251  0.91350269     0.75500
C1214       C  0.03124444  0.32398223  0.95625686     0.77900
Cd1215     Cd  0.04707747  0.33165838  0.93447810     1.37500
O1216       O  0.06999141  0.33338134  0.94137162    -0.57100
O1217       O  0.04172794  0.31823544  0.95366479    -0.55900
C1218       C  0.04141131  0.35354849  0.91816058     0.77900
O1219       O  0.02759975  0.33233510  0.94814394    -0.58200
O1220       O  0.05672046  0.34751671  0.94885454    -0.56700
O1221       O  0.04023831  0.31811443  0.91612975    -0.56700
O1222       O  0.05234409  0.35143106  0.92312943    -0.55900
O1223       O  0.19865878  0.31487063  0.91366761    -0.57100
C1224       C  0.19405022  0.28820272  0.88687526     0.75600
O1225       O  0.20713848  0.31610291  0.87880758    -0.58200
C1226       C  0.20664533  0.32327169  0.91766191     0.75500
C1227       C  0.23167106  0.28458576  0.90639110     0.77900
Cd1228     Cd  0.21360626  0.30445238  0.89817657     1.37500
O1229       O  0.19185601  0.29469688  0.89704456    -0.57100
O1230       O  0.22146367  0.28707997  0.91262390    -0.55900
C1231       C  0.21691786  0.32332245  0.87769317     0.77900
O1232       O  0.23404965  0.29197106  0.89695849    -0.58200
O1233       O  0.20537481  0.28891692  0.88234635    -0.56700
O1234       O  0.21807554  0.32207031  0.91355688    -0.56700
O1235       O  0.22598762  0.32121988  0.88563644    -0.55900
O1236       O  0.16678003  0.41502882  0.94067898    -0.57100
C1237       C  0.14094643  0.44351713  0.93692615     0.75600
O1238       O  0.14269072  0.41325428  0.97121813    -0.58200
C1239       C  0.17164948  0.40772743  0.94917576     0.75500
C1240       C  0.16441506  0.44857451  0.97194108     0.77900
Cd1241     Cd  0.15400196  0.42815687  0.95607457     1.37500
O1242       O  0.15153108  0.43787598  0.93442094    -0.57100
O1243       O  0.16955171  0.44518665  0.96140987    -0.55900
C1244       C  0.13372044  0.41074938  0.96326329     0.77900
O1245       O  0.15493488  0.44177773  0.97564346    -0.58200
O1246       O  0.13685181  0.44238173  0.94837840    -0.56700
O1247       O  0.16935078  0.41079591  0.96076709    -0.56700
O1248       O  0.13402173  0.41668616  0.95265024    -0.55900
C1249       C  0.20251345  0.33444131  0.92576799    -0.11200
C1250       C  0.21134875  0.34366901  0.93078516     0.04300
C1251       C  0.20677442  0.35529838  0.93603155    -0.11800
C1252       C  0.19352439  0.35791951  0.93656207     0.19100
C1253       C  0.18469191  0.34844434  0.93243184    -0.08800
C1254       C  0.18919325  0.33683849  0.92713467    -0.01800
H1255       H  0.21360915  0.36251880  0.93935916     0.05600
C1256       C  0.18908838  0.37100077  0.94023395     0.21100
H1257       H  0.18218814  0.32996038  0.92346844     0.10800
C1258       C  0.18850275  0.38058559  0.93071951    -0.15100
C1259       C  0.18335956  0.39281839  0.93341612     0.03800
C1260       C  0.17878453  0.39567439  0.94596582    -0.10500
C1261       C  0.17991066  0.38613430  0.95558829    -0.00500
C1262       C  0.18490436  0.37388323  0.95279348    -0.05600
H1263       H  0.19178265  0.37841125  0.92102904     0.06800
H1264       H  0.17640170  0.38799117  0.96525781     0.10200
Br1265     Br  0.16639549  0.35133691  0.93308536    -0.05300
Br1266     Br  0.22975302  0.34133189  0.93062804    -0.02300
Br1267     Br  0.18287961  0.40496485  0.91944565     0.00600
Br1268     Br  0.18533311  0.36122331  0.96626728    -0.03800
C1269       C  0.12371699  0.40093211  0.96567139    -0.11200
C1270       C  0.11101758  0.40270611  0.96112364     0.04300
C1271       C  0.10241479  0.39232257  0.96097875    -0.11800
C1272       C  0.10618317  0.38007393  0.96537098     0.19100
C1273       C  0.11866917  0.37844088  0.97054809    -0.08800
C1274       C  0.12730667  0.38888715  0.97076454    -0.01800
H1275       H  0.09285486  0.39369781  0.95694325     0.05600
C1276       C  0.09729244  0.36906002  0.96316691     0.21100
H1277       H  0.13707171  0.38738430  0.97421803     0.10800
C1278       C  0.10084408  0.35935261  0.95437990    -0.15100
C1279       C  0.09184851  0.35021305  0.95000035     0.03800
C1280       C  0.07888858  0.35089354  0.95426646    -0.10500
C1281       C  0.07564331  0.36009544  0.96375032    -0.00500
C1282       C  0.08469007  0.36908512  0.96821336    -0.05600
H1283       H  0.11050908  0.35929498  0.95037914     0.06800
H1284       H  0.06585520  0.36064537  0.96739492     0.10200
Br1285     Br  0.12443917  0.36208176  0.97704299    -0.05300
Br1286     Br  0.10494876  0.41907265  0.95482273    -0.02300
Br1287     Br  0.09781926  0.33789301  0.93746899     0.00600
Br1288     Br  0.07925760  0.38148650  0.98090461    -0.03800
C1289       C  0.08013392  0.28935584  0.84010797    -0.11200
C1290       C  0.08656285  0.29679815  0.84957574     0.04300
C1291       C  0.08058722  0.29931653  0.86137459    -0.11800
C1292       C  0.06829597  0.29437350  0.86414873     0.19100
C1293       C  0.06176901  0.28703080  0.85467730    -0.08800
C1294       C  0.06776598  0.28446224  0.84279477    -0.01800
H1295       H  0.08567260  0.30501138  0.86855943     0.05600
C1296       C  0.06256741  0.29733404  0.87693446     0.21100
H1297       H  0.06278164  0.27862409  0.83566026     0.10800
C1298       C  0.05199397  0.30571881  0.87763454    -0.15100
C1299       C  0.04767535  0.31051163  0.88950916     0.03800
C1300       C  0.05403076  0.30694773  0.90108483    -0.10500
C1301       C  0.06430114  0.29810015  0.90037446    -0.00500
C1302       C  0.06852205  0.29324450  0.88845983    -0.05600
H1303       H  0.04748918  0.30909048  0.86882238     0.06800
H1304       H  0.06930094  0.29521284  0.90908792     0.10200
Br1305     Br  0.04492483  0.27995133  0.85772561    -0.05300
Br1306     Br  0.10403337  0.30275863  0.84749606    -0.02300
Br1307     Br  0.03407011  0.32306628  0.88885073     0.00600
Br1308     Br  0.08263455  0.28122731  0.88832158    -0.03800
C1309       C  0.18366687  0.28110266  0.88001375    -0.11200
C1310       C  0.18628225  0.27098869  0.87118301     0.04300
C1311       C  0.17658202  0.26669164  0.86276368    -0.11800
C1312       C  0.16428718  0.27234973  0.86293350     0.19100
C1313       C  0.16136262  0.28160492  0.87247668    -0.08800
C1314       C  0.17097977  0.28579358  0.88099572    -0.01800
H1315       H  0.17884186  0.25942689  0.85556361     0.05600
C1316       C  0.15531339  0.27006575  0.85204499     0.21100
H1317       H  0.16873618  0.29348828  0.88774107     0.10800
C1318       C  0.14400051  0.26283954  0.85384528    -0.15100
C1319       C  0.13446042  0.26229767  0.84422026     0.03800
C1320       C  0.13605044  0.26945447  0.83268191    -0.10500
C1321       C  0.14784784  0.27589653  0.83064682    -0.00500
C1322       C  0.15745196  0.27613202  0.84011232    -0.05600
H1323       H  0.14241496  0.25794283  0.86293427     0.06800
H1324       H  0.14947379  0.28120837  0.82180239     0.10200
Br1325     Br  0.14481875  0.28992009  0.87330253    -0.05300
Br1326     Br  0.20289605  0.26284847  0.86989678    -0.02300
Br1327     Br  0.11940574  0.25209647  0.84786003     0.00600
Br1328     Br  0.17301216  0.28561789  0.83659869    -0.03800
C1329       C  0.20739783  0.38178273  0.81990105    -0.11200
C1330       C  0.21871532  0.37414384  0.81962923     0.04300
C1331       C  0.22143476  0.36574668  0.82986967    -0.11800
C1332       C  0.21317385  0.36499539  0.84054360     0.19100
C1333       C  0.20275715  0.37368304  0.84149407    -0.08800
C1334       C  0.19992428  0.38195491  0.83121582    -0.01800
H1335       H  0.22971189  0.35937614  0.82924440     0.05600
C1336       C  0.21465707  0.35420025  0.84978977     0.21100
H1337       H  0.19135964  0.38793667  0.83178267     0.10800
C1338       C  0.22461978  0.35434665  0.85896884    -0.15100
C1339       C  0.22590220  0.34429940  0.86799280     0.03800
C1340       C  0.21714616  0.33374395  0.86777630    -0.10500
C1341       C  0.20743608  0.33357067  0.85825716    -0.00500
C1342       C  0.20614273  0.34360494  0.84937912    -0.05600
H1343       H  0.23125547  0.36244905  0.85928432     0.06800
H1344       H  0.20061902  0.32562997  0.85777234     0.10200
Br1345     Br  0.19172089  0.37403354  0.85634912    -0.05300
Br1346     Br  0.23082669  0.37476085  0.80563093    -0.02300
Br1347     Br  0.23936688  0.34608402  0.88061750     0.00600
Br1348     Br  0.19253996  0.34235627  0.83681334    -0.03800
C1349       C  0.16422238  0.36351634  0.77950567    -0.11200
C1350       C  0.16490027  0.35284505  0.78799481     0.04300
C1351       C  0.15546219  0.34323276  0.78746766    -0.11800
C1352       C  0.14527493  0.34390383  0.77861847     0.19100
C1353       C  0.14475607  0.35420672  0.76982797    -0.08800
C1354       C  0.15424913  0.36388940  0.77025860    -0.01800
H1355       H  0.15595743  0.33521757  0.79416692     0.05600
C1356       C  0.13521491  0.33382088  0.77930281     0.21100
H1357       H  0.15355014  0.37195973  0.76365778     0.10800
C1358       C  0.12417930  0.33612910  0.78676942    -0.15100
C1359       C  0.11622425  0.32590953  0.79071198     0.03800
C1360       C  0.11938071  0.31305860  0.78714401    -0.10500
C1361       C  0.12982096  0.31103015  0.77869251    -0.00500
C1362       C  0.13773201  0.32125360  0.77484186    -0.05600
H1363       H  0.12225595  0.34581162  0.79029140     0.06800
H1364       H  0.13231578  0.30133375  0.77561193     0.10200
Br1365     Br  0.13118923  0.35545538  0.75729814    -0.05300
Br1366     Br  0.17845915  0.35050822  0.80047095    -0.02300
Br1367     Br  0.10215941  0.33024692  0.80199300     0.00600
Br1368     Br  0.15250710  0.31750818  0.76433352    -0.03800
C1369       C  0.03959123  0.36466309  0.90932177    -0.11200
C1370       C  0.02976245  0.36521992  0.89982335     0.04300
C1371       C  0.02969223  0.37534769  0.89084290    -0.11800
C1372       C  0.03910122  0.38508790  0.89130955     0.19100
C1373       C  0.04851546  0.38486070  0.90107016    -0.08800
C1374       C  0.04874901  0.37470732  0.90987746    -0.01800
H1375       H  0.02237845  0.37554686  0.88336112     0.05600
C1376       C  0.03943378  0.39524518  0.88135779     0.21100
H1377       H  0.05629666  0.37461162  0.91712722     0.10800
C1378       C  0.03478420  0.40759898  0.88434018    -0.15100
C1379       C  0.03710112  0.41805163  0.87610535     0.03800
C1380       C  0.04425693  0.41616400  0.86460591    -0.10500
C1381       C  0.04801756  0.40352738  0.86125321    -0.00500
C1382       C  0.04575262  0.39314886  0.86954984    -0.05600
H1383       H  0.02981868  0.40921637  0.89339872     0.06800
H1384       H  0.05347803  0.40178423  0.85251317     0.10200
Br1385     Br  0.06155815  0.39800513  0.90248089    -0.05300
Br1386     Br  0.01647339  0.35239025  0.89814520    -0.02300
Br1387     Br  0.03040892  0.43453492  0.88141923     0.00600
Br1388     Br  0.05250700  0.37650888  0.86490870    -0.03800
C1389       C  0.09479511  0.43968275  0.81705269    -0.11200
C1390       C  0.10149594  0.44936907  0.81014825     0.04300
C1391       C  0.11352906  0.44660596  0.80462951    -0.11800
C1392       C  0.11901650  0.43430137  0.80582429     0.19100
C1393       C  0.11210702  0.42448087  0.81217009    -0.08800
C1394       C  0.10008264  0.42719000  0.81764150    -0.01800
H1395       H  0.11874328  0.45414522  0.79959480     0.05600
C1396       C  0.13220925  0.43190358  0.80100260     0.21100
H1397       H  0.09514054  0.41961880  0.82289628     0.10800
C1398       C  0.14242064  0.43163233  0.80984946    -0.15100
C1399       C  0.15472504  0.42749913  0.80614445     0.03800
C1400       C  0.15692128  0.42333602  0.79328746    -0.10500
C1401       C  0.14682131  0.42457104  0.78424172    -0.00500
C1402       C  0.13456383  0.42887326  0.78800687    -0.05600
H1403       H  0.14065207  0.43414322  0.81985083     0.06800
H1404       H  0.14826405  0.42161094  0.77431567     0.10200
Br1405     Br  0.11892622  0.40732068  0.81393668    -0.05300
Br1406     Br  0.09470346  0.46644710  0.80769650    -0.02300
Br1407     Br  0.16754537  0.42688964  0.81956153     0.00600
Br1408     Br  0.12106072  0.42965540  0.77534650    -0.03800
C1409       C  0.08807529  0.45512899  0.87652715    -0.11200
C1410       C  0.08850518  0.44580933  0.88641774     0.04300
C1411       C  0.09748713  0.44702465  0.89633489    -0.11800
C1412       C  0.10594943  0.45759288  0.89691955     0.19100
C1413       C  0.10530057  0.46716789  0.88728828    -0.08800
C1414       C  0.09633012  0.46590928  0.87718967    -0.01800
H1415       H  0.09790415  0.43959736  0.90368064     0.05600
C1416       C  0.11557365  0.45777033  0.90748732     0.21100
H1417       H  0.09606404  0.47315079  0.86966329     0.10800
C1418       C  0.12867250  0.45593278  0.90458188    -0.15100
C1419       C  0.13749081  0.45233034  0.91419636     0.03800
C1420       C  0.13311973  0.45026897  0.92696678    -0.10500
C1421       C  0.12026070  0.45345422  0.93000530    -0.00500
C1422       C  0.11154002  0.45715838  0.92042848    -0.05600
H1423       H  0.13190193  0.45649668  0.89466019     0.06800
H1424       H  0.11669308  0.45231466  0.93975602     0.10200
Br1425     Br  0.11633663  0.48206280  0.88758571    -0.05300
Br1426     Br  0.07670978  0.43145630  0.88731649    -0.02300
Br1427     Br  0.15514028  0.45001099  0.90902560     0.00600
Br1428     Br  0.09394113  0.46037972  0.92533808    -0.03800
C1429       C  0.17055265  0.52405823  0.00389758    -0.11200
C1430       C  0.16434596  0.52035673  0.99228175     0.04300
C1431       C  0.16557836  0.50769226  0.98771968    -0.11800
C1432       C  0.17298250  0.49859548  0.99441126     0.19100
C1433       C  0.17996881  0.50243203  0.00537616    -0.08800
C1434       C  0.17873750  0.51507932  0.01004015    -0.01800
H1435       H  0.16036777  0.50478270  0.97911092     0.05600
C1436       C  0.17238517  0.48498072  0.99025225     0.21100
H1437       H  0.18372687  0.51767086  0.01886796     0.10800
C1438       C  0.18046807  0.48067729  0.98034500    -0.15100
C1439       C  0.17874469  0.46843984  0.97480594     0.03800
C1440       C  0.16854372  0.46035370  0.97909603    -0.10500
C1441       C  0.16104620  0.46446532  0.98966126    -0.00500
C1442       C  0.16288813  0.47665754  0.99520573    -0.05600
H1443       H  0.18788843  0.48704862  0.97662311     0.06800
H1444       H  0.15327326  0.45846146  0.99325862     0.10200
Br1445     Br  0.19074673  0.49049428  0.01454305    -0.05300
Br1446     Br  0.15385069  0.53182685  0.98218388    -0.02300
Br1447     Br  0.19050130  0.46382102  0.96123213     0.00600
Br1448     Br  0.15166889  0.48193010  0.00898273    -0.03800
C1449       C  0.21095161  0.64815393  0.05800594    -0.11200
C1450       C  0.22028886  0.63937834  0.05312816     0.04300
C1451       C  0.21628799  0.62768934  0.04751021    -0.11800
C1452       C  0.20314985  0.62462717  0.04652606     0.19100
C1453       C  0.19387969  0.63372411  0.05045849    -0.08800
C1454       C  0.19779631  0.64535739  0.05605755    -0.01800
H1455       H  0.22345282  0.62074509  0.04434958     0.05600
C1456       C  0.19909632  0.61147055  0.04276905     0.21100
H1457       H  0.19042460  0.65192162  0.05952629     0.10800
C1458       C  0.19530758  0.60294760  0.05251507    -0.15100
C1459       C  0.18924173  0.59123537  0.04957495     0.03800
C1460       C  0.18678190  0.58789140  0.03652398    -0.10500
C1461       C  0.19149354  0.59610843  0.02675932    -0.00500
C1462       C  0.19763398  0.60780369  0.02980452    -0.05600
H1463       H  0.19655633  0.60572450  0.06253175     0.06800
H1464       H  0.18993504  0.59371836  0.01669663     0.10200
Br1465     Br  0.17569606  0.63032336  0.04906777    -0.05300
Br1466     Br  0.23858866  0.64234564  0.05408199    -0.02300
Br1467     Br  0.18395407  0.58097072  0.06407629     0.00600
Br1468     Br  0.20315073  0.61886149  0.01604833    -0.03800
C1469       C  0.13606696  0.70657936  0.14864381    -0.11200
C1470       C  0.13873952  0.71740499  0.14075000     0.04300
C1471       C  0.14874001  0.71674545  0.13163046    -0.11800
C1472       C  0.15612701  0.70547643  0.13027410     0.19100
C1473       C  0.15387125  0.69495848  0.13850635    -0.08800
C1474       C  0.14394269  0.69556329  0.14753733    -0.01800
H1475       H  0.15059328  0.72493463  0.12540464     0.05600
C1476       C  0.16630067  0.70460672  0.12038212     0.21100
H1477       H  0.14224876  0.68721753  0.15360299     0.10800
C1478       C  0.17875833  0.70874218  0.12353462    -0.15100
C1479       C  0.18928910  0.70545239  0.11577671     0.03800
C1480       C  0.18738366  0.69774844  0.10457004    -0.10500
C1481       C  0.17466657  0.69457097  0.10092163    -0.00500
C1482       C  0.16417792  0.69792394  0.10874248    -0.05600
H1483       H  0.18038801  0.71396033  0.13247276     0.06800
H1484       H  0.17288972  0.68885165  0.09233042     0.10200
Br1485     Br  0.16401587  0.67943866  0.13761855    -0.05300
Br1486     Br  0.12875190  0.73300933  0.14131120    -0.02300
Br1487     Br  0.20588659  0.71138549  0.12169277     0.00600
Br1488     Br  0.14720003  0.69241467  0.10369865    -0.03800
C1489       C  0.07852512  0.63048179  0.02801770    -0.11200
C1490       C  0.07588418  0.62091866  0.01859674     0.04300
C1491       C  0.08571475  0.61254597  0.01458060    -0.11800
C1492       C  0.09820328  0.61367067  0.01969019     0.19100
C1493       C  0.10113794  0.62404501  0.02800037    -0.08800
C1494       C  0.09133804  0.63238924  0.03205443    -0.01800
H1495       H  0.08345690  0.60470484  0.00799823     0.05600
C1496       C  0.10740276  0.60289039  0.01816753     0.21100
H1497       H  0.09359959  0.63977257  0.03914195     0.10800
C1498       C  0.11807131  0.60409691  0.00993999    -0.15100
C1499       C  0.12795581  0.59482272  0.01000684     0.03800
C1500       C  0.12717344  0.58412653  0.01844301    -0.10500
C1501       C  0.11612904  0.58271693  0.02619597    -0.00500
C1502       C  0.10632936  0.59195811  0.02612404    -0.05600
H1503       H  0.11899295  0.61258018  0.00390196     0.06800
H1504       H  0.11529641  0.57458225  0.03271011     0.10200
Br1505     Br  0.11808552  0.62629749  0.03518864    -0.05300
Br1506     Br  0.05908539  0.61868219  0.01101258    -0.02300
Br1507     Br  0.14276299  0.59810053  0.99939844     0.00600
Br1508     Br  0.09214252  0.58978404  0.03786503    -0.03800
C1509       C  0.07601869  0.69924811  0.14022150    -0.11200
C1510       C  0.07495321  0.70935289  0.13102188     0.04300
C1511       C  0.06946550  0.70688839  0.11887350    -0.11800
C1512       C  0.06461786  0.69463633  0.11572429     0.19100
C1513       C  0.06487624  0.68482036  0.12511577    -0.08800
C1514       C  0.07054379  0.68716013  0.13716517    -0.01800
H1515       H  0.06924066  0.71450418  0.11171980     0.05600
C1516       C  0.06073991  0.69169094  0.10225766     0.21100
H1517       H  0.07110471  0.67926925  0.14398891     0.10800
C1518       C  0.07038442  0.69049194  0.09284717    -0.15100
C1519       C  0.06771364  0.68482343  0.08084580     0.03800
C1520       C  0.05518335  0.67993724  0.07825776    -0.10500
C1521       C  0.04525178  0.68263352  0.08713869    -0.00500
C1522       C  0.04792776  0.68855556  0.09899732    -0.05600
H1523       H  0.08020893  0.69333347  0.09511193     0.06800
H1524       H  0.03546061  0.67945722  0.08522776     0.10200
Br1525     Br  0.05854436  0.66769692  0.12160210    -0.05300
Br1526     Br  0.08101608  0.72667265  0.13399662    -0.02300
Br1527     Br  0.08178831  0.68372230  0.06881827     0.00600
Br1528     Br  0.03392683  0.69157393  0.11071598    -0.03800
C1529       C  0.04344617  0.61922558  0.08044514    -0.11200
C1530       C  0.05260719  0.61811483  0.09050824     0.04300
C1531       C  0.05235716  0.60737196  0.09865957    -0.11800
C1532       C  0.04311380  0.59760432  0.09702633     0.19100
C1533       C  0.03334549  0.59917563  0.08768498    -0.08800
C1534       C  0.03354611  0.60995518  0.07950384    -0.01800
H1535       H  0.05976240  0.60636514  0.10598648     0.05600
C1536       C  0.04481964  0.58538445  0.10424833     0.21100
H1537       H  0.02630565  0.61075243  0.07199545     0.10800
C1538       C  0.04305751  0.58519264  0.11767286    -0.15100
C1539       C  0.04642064  0.57426935  0.12494388     0.03800
C1540       C  0.05188540  0.56337128  0.11876068    -0.10500
C1541       C  0.05309573  0.56344599  0.10526028    -0.00500
C1542       C  0.04970288  0.57430369  0.09803415    -0.05600
H1543       H  0.03926527  0.59366213  0.12252990     0.06800
H1544       H  0.05727613  0.55522167  0.10030341     0.10200
Br1545     Br  0.01988196  0.58660328  0.08547607    -0.05300
Br1546     Br  0.06567128  0.63094260  0.09373089    -0.02300
Br1547     Br  0.04296563  0.57471533  0.14313497     0.00600
Br1548     Br  0.05297657  0.57387146  0.07980611    -0.03800
C1549       C  0.09971923  0.52298570  0.11028912    -0.11200
C1550       C  0.11099381  0.53062718  0.11113617     0.04300
C1551       C  0.11944492  0.53127125  0.10068429    -0.11800
C1552       C  0.11702245  0.52413337  0.08944791     0.19100
C1553       C  0.10672720  0.51521135  0.08924527    -0.08800
C1554       C  0.09805292  0.51475322  0.09962283    -0.01800
H1555       H  0.12759818  0.53784116  0.10109064     0.05600
C1556       C  0.12433134  0.52745286  0.07768336     0.21100
H1557       H  0.08963976  0.50854513  0.09901237     0.10800
C1558       C  0.13758211  0.52470702  0.07692475    -0.15100
C1559       C  0.14501912  0.52929600  0.06660124     0.03800
C1560       C  0.13917878  0.53694309  0.05696769    -0.10500
C1561       C  0.12583781  0.53926751  0.05756518    -0.00500
C1562       C  0.11844542  0.53470458  0.06781987    -0.05600
H1563       H  0.14217032  0.51913131  0.08447998     0.06800
H1564       H  0.12119101  0.54517134  0.05029405     0.10200
Br1565     Br  0.10397316  0.50395793  0.07476170    -0.05300
Br1566     Br  0.11527998  0.54041742  0.12635012    -0.02300
Br1567     Br  0.16287607  0.52440347  0.06590648     0.00600
Br1568     Br  0.10055943  0.53960320  0.06839108    -0.03800
C1569       C  0.21063377  0.60680090  0.16894704    -0.11200
C1570       C  0.22067869  0.61589841  0.17081049     0.04300
C1571       C  0.22433031  0.62405168  0.16069459    -0.11800
C1572       C  0.21815255  0.62332393  0.14868522     0.19100
C1573       C  0.20861839  0.61384555  0.14659461    -0.08800
C1574       C  0.20500652  0.60562273  0.15665323    -0.01800
H1575       H  0.23176333  0.63126372  0.16230766     0.05600
C1576       C  0.22090273  0.63325130  0.13885991     0.21100
H1577       H  0.19724915  0.59876604  0.15503128     0.10800
C1578       C  0.22846356  0.63018498  0.12806875    -0.15100
C1579       C  0.23032403  0.63918748  0.11814076     0.03800
C1580       C  0.22449272  0.65154406  0.11899144    -0.10500
C1581       C  0.21741047  0.65466617  0.13015890    -0.00500
C1582       C  0.21552806  0.64566322  0.13995905    -0.05600
H1583       H  0.23265026  0.62062483  0.12722204     0.06800
H1584       H  0.21284761  0.66404106  0.13111354     0.10200
Br1585     Br  0.19954011  0.61248709  0.13049529    -0.05300
Br1586     Br  0.22988094  0.61763967  0.18681735    -0.02300
Br1587     Br  0.24028734  0.63358490  0.10355170     0.00600
Br1588     Br  0.20475260  0.65048945  0.15424620    -0.03800
C1589       C  0.16023977  0.55915057  0.19214457    -0.11200
C1590       C  0.15867761  0.55315369  0.17991967     0.04300
C1591       C  0.14668898  0.54790500  0.17639758    -0.11800
C1592       C  0.13608956  0.54845423  0.18477403     0.19100
C1593       C  0.13784046  0.55347737  0.19727795    -0.08800
C1594       C  0.14980814  0.55872897  0.20086852    -0.01800
H1595       H  0.14547768  0.54382898  0.16682798     0.05600
C1596       C  0.12317801  0.54458952  0.17985619     0.21100
H1597       H  0.15071813  0.56307660  0.21034458     0.10800
C1598       C  0.12067686  0.53157700  0.17697849    -0.15100
C1599       C  0.10918303  0.52781905  0.17082309     0.03800
C1600       C  0.09985835  0.53725959  0.16740296    -0.10500
C1601       C  0.10223929  0.55022130  0.17085082    -0.00500
C1602       C  0.11378296  0.55393349  0.17683203    -0.05600
H1603       H  0.12789363  0.52433837  0.17920827     0.06800
H1604       H  0.09540200  0.55769551  0.16825462     0.10200
Br1605     Br  0.12401046  0.55377174  0.20958562    -0.05300
Br1606     Br  0.17220244  0.55201796  0.16729778    -0.02300
Br1607     Br  0.10730680  0.50971475  0.16706075     0.00600
Br1608     Br  0.11677556  0.57207223  0.17949378    -0.03800
C1609       C  0.16381646  0.61932588  0.20520142    -0.11200
C1610       C  0.15315765  0.61928043  0.21368427     0.04300
C1611       C  0.14392110  0.62918418  0.21295942    -0.11800
C1612       C  0.14521012  0.63917331  0.20391500     0.19100
C1613       C  0.15606663  0.63941584  0.19576364    -0.08800
C1614       C  0.16518282  0.62953186  0.19641193    -0.01800
H1615       H  0.13556641  0.62893643  0.21923635     0.05600
C1616       C  0.13508613  0.64913347  0.20256207     0.21100
H1617       H  0.17330336  0.62970836  0.18982350     0.10800
C1618       C  0.13767668  0.66168800  0.20689884    -0.15100
C1619       C  0.12988844  0.67204547  0.20314305     0.03800
C1620       C  0.11929981  0.66991036  0.19471653    -0.10500
C1621       C  0.11601502  0.65710926  0.19145259    -0.00500
C1622       C  0.12382740  0.64675352  0.19531050    -0.05600
H1623       H  0.14621586  0.66353101  0.21267925     0.06800
H1624       H  0.10784635  0.65519404  0.18519043     0.10200
Br1625     Br  0.15856293  0.65273569  0.18312117    -0.05300
Br1626     Br  0.15013010  0.60542875  0.22557131    -0.02300
Br1627     Br  0.13460036  0.68880611  0.20969369     0.00600
Br1628     Br  0.11945203  0.62967197  0.18949921    -0.03800
C1629       C  0.32967772  0.58085197  0.43582077    -0.11200
C1630       C  0.33092686  0.58625347  0.42331359     0.04300
C1631       C  0.32587523  0.59854314  0.42073881    -0.11800
C1632       C  0.31953614  0.60567716  0.43033499     0.19100
C1633       C  0.31782848  0.60018446  0.44259707    -0.08800
C1634       C  0.32292080  0.58794304  0.44526613    -0.01800
H1635       H  0.32712497  0.60269824  0.41123391     0.05600
C1636       C  0.31505544  0.61894387  0.42742076     0.21100
H1637       H  0.32180112  0.58407807  0.45490185     0.10800
C1638       C  0.30183036  0.62131488  0.42579932    -0.15100
C1639       C  0.29735740  0.63356455  0.42218697     0.03800
C1640       C  0.30625573  0.64378752  0.42022374    -0.10500
C1641       C  0.31945172  0.64146044  0.42246812    -0.00500
C1642       C  0.32388442  0.62917026  0.42586649    -0.05600
H1643       H  0.29497570  0.61349663  0.42706009     0.06800
H1644       H  0.32648741  0.64906085  0.42093286     0.10200
Br1645     Br  0.30912532  0.60932734  0.45615989    -0.05300
Br1646     Br  0.33997763  0.57796368  0.40939368    -0.02300
Br1647     Br  0.27902561  0.63546689  0.42001572     0.00600
Br1648     Br  0.34214764  0.62672968  0.42787787    -0.03800
C1649       C  0.42087649  0.52368397  0.37010517    -0.11200
C1650       C  0.42145930  0.53062924  0.38186815     0.04300
C1651       C  0.41197894  0.52870673  0.39127377    -0.11800
C1652       C  0.40186708  0.51987959  0.38932402     0.19100
C1653       C  0.40160120  0.51248066  0.37792024    -0.08800
C1654       C  0.41108575  0.51436622  0.36846221    -0.01800
H1655       H  0.41229249  0.53441972  0.40005150     0.05600
C1656       C  0.39112225  0.51968436  0.39875380     0.21100
H1657       H  0.41050710  0.50884820  0.35958186     0.10800
C1658       C  0.37920530  0.52501815  0.39516127    -0.15100
C1659       C  0.36980621  0.52797911  0.40441165     0.03800
C1660       C  0.37233896  0.52561499  0.41761839    -0.10500
C1661       C  0.38379605  0.51910884  0.42097536    -0.00500
C1662       C  0.39315888  0.51620655  0.41170128    -0.05600
H1663       H  0.37755689  0.52772154  0.38520153     0.06800
H1664       H  0.38586524  0.51695331  0.43098902     0.10200
Br1665     Br  0.38841770  0.49979613  0.37486101    -0.05300
Br1666     Br  0.43499323  0.54271092  0.38590739    -0.02300
Br1667     Br  0.35452281  0.53654386  0.39831850     0.00600
Br1668     Br  0.40888485  0.50815400  0.41726450    -0.03800
C1669       C  0.28549593  0.57964085  0.25662669    -0.11200
C1670       C  0.27770722  0.56846807  0.25804456     0.04300
C1671       C  0.26580732  0.56756901  0.25156501    -0.11800
C1672       C  0.26141044  0.57765427  0.24368884     0.19100
C1673       C  0.26917616  0.58871123  0.24216758    -0.08800
C1674       C  0.28111062  0.58958227  0.24848304    -0.01800
H1675       H  0.25990226  0.55900195  0.25275339     0.05600
C1676       C  0.24855902  0.57678177  0.23737742     0.21100
H1677       H  0.28677463  0.59831909  0.24736020     0.10800
C1678       C  0.23751638  0.58056918  0.24423369    -0.15100
C1679       C  0.22541891  0.58133413  0.23814360     0.03800
C1680       C  0.22420569  0.57818920  0.22489373    -0.10500
C1681       C  0.23522665  0.57377174  0.21827028    -0.00500
C1682       C  0.24729842  0.57312926  0.22435711    -0.05600
H1683       H  0.23838625  0.58329366  0.25429904     0.06800
H1684       H  0.23459994  0.57131496  0.20812234     0.10200
Br1685     Br  0.26354406  0.60312375  0.23199535    -0.05300
Br1686     Br  0.28280338  0.55398689  0.26841317    -0.02300
Br1687     Br  0.21102285  0.58659647  0.24854974     0.00600
Br1688     Br  0.26192517  0.56771781  0.21437821    -0.03800
C1689       C  0.29298316  0.65366663  0.36349627    -0.11200
C1690       C  0.28243667  0.64520266  0.36122044     0.04300
C1691       C  0.28309469  0.63616163  0.35114177    -0.11800
C1692       C  0.29408317  0.63537542  0.34332516     0.19100
C1693       C  0.30442532  0.64391051  0.34537163    -0.08800
C1694       C  0.30380192  0.65294805  0.35531230    -0.01800
H1695       H  0.27507686  0.62962450  0.34947252     0.05600
C1696       C  0.29480971  0.62575092  0.33290316     0.21100
H1697       H  0.31202962  0.65926472  0.35677756     0.10800
C1698       C  0.29199869  0.62967877  0.32032973    -0.15100
C1699       C  0.29504742  0.62181706  0.30980551     0.03800
C1700       C  0.30108630  0.60968871  0.31185068    -0.10500
C1701       C  0.30308441  0.60546807  0.32459344    -0.00500
C1702       C  0.30001838  0.61341731  0.33508049    -0.05600
H1703       H  0.28795944  0.63919532  0.31867347     0.06800
H1704       H  0.30763768  0.59623064  0.32643203     0.10200
Br1705     Br  0.31980426  0.64331131  0.33502700    -0.05300
Br1706     Br  0.26700245  0.64510661  0.37147448    -0.02300
Br1707     Br  0.29095375  0.62866511  0.29306787     0.00600
Br1708     Br  0.30393307  0.60749940  0.35216886    -0.03800
C1709       C  0.35076446  0.56151609  0.28886148    -0.11200
C1710       C  0.35247326  0.55550986  0.30103744     0.04300
C1711       C  0.36455993  0.55038488  0.30442855    -0.11800
C1712       C  0.37502144  0.55088309  0.29586841     0.19100
C1713       C  0.37305812  0.55579602  0.28339644    -0.08800
C1714       C  0.36108313  0.56108956  0.28001373    -0.01800
H1715       H  0.36593063  0.54637242  0.31397806     0.05600
C1716       C  0.38811278  0.54736952  0.30053254     0.21100
H1717       H  0.36004952  0.56536183  0.27054188     0.10800
C1718       C  0.39175202  0.53435649  0.30148228    -0.15100
C1719       C  0.40377725  0.53084381  0.30671794     0.03800
C1720       C  0.41235396  0.54051531  0.31136104    -0.10500
C1721       C  0.40877342  0.55355761  0.30986640    -0.00500
C1722       C  0.39684167  0.55700096  0.30455923    -0.05600
H1723       H  0.38514401  0.52688979  0.29824634     0.06800
H1724       H  0.41508730  0.56120248  0.31326109     0.10200
Br1725     Br  0.38663369  0.55585094  0.27083026    -0.05300
Br1726     Br  0.33897591  0.55404621  0.31365421    -0.02300
Br1727     Br  0.40768684  0.51270651  0.30712559     0.00600
Br1728     Br  0.39260675  0.57503810  0.30360799    -0.03800
C1729       C  0.38564085  0.57144291  0.45737696    -0.11200
C1730       C  0.39716187  0.57094110  0.45007394     0.04300
C1731       C  0.40649823  0.58055224  0.45165004    -0.11800
C1732       C  0.40481508  0.59060487  0.46058540     0.19100
C1733       C  0.39378640  0.59064314  0.46850062    -0.08800
C1734       C  0.38430007  0.58111238  0.46684949    -0.01800
H1735       H  0.41501625  0.58038115  0.44558183     0.05600
C1736       C  0.41412332  0.60146559  0.46031520     0.21100
H1737       H  0.37564081  0.58155655  0.47268942     0.10800
C1738       C  0.41005682  0.61341823  0.45542900    -0.15100
C1739       C  0.41902937  0.62279326  0.45157475     0.03800
C1740       C  0.43242214  0.62013430  0.45242412    -0.10500
C1741       C  0.43635564  0.60862704  0.45851648    -0.00500
C1742       C  0.42735643  0.59937612  0.46246974    -0.05600
H1743       H  0.39986099  0.61513026  0.45379577     0.06800
H1744       H  0.44652885  0.60649310  0.45969557     0.10200
Br1745     Br  0.39131159  0.60345547  0.48165672    -0.05300
Br1746     Br  0.40100258  0.55741444  0.43789496    -0.02300
Br1747     Br  0.41213310  0.63840797  0.44435792     0.00600
Br1748     Br  0.43356586  0.58373185  0.47022081    -0.03800
C1749       C  0.46513844  0.56733842  0.35155283    -0.11200
C1750       C  0.47517726  0.56662772  0.36075995     0.04300
C1751       C  0.47750784  0.57711283  0.36897928    -0.11800
C1752       C  0.47008556  0.58837676  0.36802329     0.19100
C1753       C  0.46128836  0.58971649  0.35777187    -0.08800
C1754       C  0.45890157  0.57922492  0.34956546    -0.01800
H1755       H  0.48449581  0.57614342  0.37670693     0.05600
C1756       C  0.46968245  0.59725177  0.37914684     0.21100
H1757       H  0.45131783  0.58002768  0.34240171     0.10800
C1758       C  0.47780487  0.60807230  0.37971758    -0.15100
C1759       C  0.47729638  0.61655791  0.39028477     0.03800
C1760       C  0.46876752  0.61398324  0.40063411    -0.10500
C1761       C  0.46064873  0.60312350  0.39990495    -0.00500
C1762       C  0.46097416  0.59487441  0.38926484    -0.05600
H1763       H  0.48431981  0.61007074  0.37179675     0.06800
H1764       H  0.45385500  0.60110700  0.40758720     0.10200
Br1765     Br  0.45127790  0.60515561  0.35562991    -0.05300
Br1766     Br  0.48566056  0.55147852  0.36286551    -0.02300
Br1767     Br  0.48753214  0.63201491  0.38934557     0.00600
Br1768     Br  0.44902059  0.58066044  0.38876068    -0.03800
C1769       C  0.39080544  0.67067254  0.28491151    -0.11200
C1770       C  0.38086272  0.67328498  0.27591894     0.04300
C1771       C  0.37248323  0.66338622  0.27211049    -0.11800
C1772       C  0.37390316  0.65091879  0.27708866     0.19100
C1773       C  0.38450503  0.64803768  0.28507632    -0.08800
C1774       C  0.39293155  0.65788294  0.28884944    -0.01800
H1775       H  0.36440130  0.66558047  0.26583772     0.05600
C1776       C  0.36323343  0.64165337  0.27567477     0.21100
H1777       H  0.40055934  0.65567925  0.29566056     0.10800
C1778       C  0.36220113  0.63392082  0.26459953    -0.15100
C1779       C  0.35286138  0.62410761  0.26385493     0.03800
C1780       C  0.34454671  0.62193758  0.27444831    -0.10500
C1781       C  0.34511717  0.63039299  0.28508114    -0.00500
C1782       C  0.35431676  0.64016424  0.28575084    -0.05600
H1783       H  0.36893918  0.63524651  0.25672321     0.06800
H1784       H  0.33860533  0.62917218  0.29316643     0.10200
Br1785     Br  0.38707469  0.63106825  0.29206430    -0.05300
Br1786     Br  0.37797585  0.69014479  0.26873580    -0.02300
Br1787     Br  0.35258204  0.61366300  0.24854145     0.00600
Br1788     Br  0.35466758  0.65092612  0.30089620    -0.03800
C1789       C  0.43481612  0.68890338  0.33782533    -0.11200
C1790       C  0.43588466  0.67583299  0.34180521     0.04300
C1791       C  0.44058872  0.67296021  0.35414190    -0.11800
C1792       C  0.44422197  0.68279925  0.36272793     0.19100
C1793       C  0.44388484  0.69570731  0.35859298    -0.08800
C1794       C  0.43930345  0.69865088  0.34624409    -0.01800
H1795       H  0.44097743  0.66297365  0.35725645     0.05600
C1796       C  0.44756776  0.67930495  0.37615178     0.21100
H1797       H  0.43865284  0.70872613  0.34350310     0.10800
C1798       C  0.46053979  0.67800886  0.37970373    -0.15100
C1799       C  0.46396547  0.67290412  0.39174291     0.03800
C1800       C  0.45421395  0.66902437  0.40056075    -0.10500
C1801       C  0.44121980  0.67117321  0.39719435    -0.00500
C1802       C  0.43787342  0.67614569  0.38509877    -0.05600
H1803       H  0.46804019  0.68050776  0.37286445     0.06800
H1804       H  0.43355268  0.66831699  0.40369403     0.10200
Br1805     Br  0.44866271  0.70969498  0.36979401    -0.05300
Br1806     Br  0.43057584  0.66132998  0.33144229    -0.02300
Br1807     Br  0.48215002  0.67115112  0.39505881     0.00600
Br1808     Br  0.41989760  0.67782465  0.38088044    -0.03800
C1809       C  0.37973991  0.70872538  0.33581973    -0.11200
C1810       C  0.38299726  0.71250458  0.34853985     0.04300
C1811       C  0.37364263  0.71193617  0.35830262    -0.11800
C1812       C  0.36112443  0.70747298  0.35562444     0.19100
C1813       C  0.35782082  0.70397377  0.34292299    -0.08800
C1814       C  0.36705442  0.70469560  0.33316824    -0.01800
H1815       H  0.37629513  0.71439323  0.36812301     0.05600
C1816       C  0.35189417  0.70516835  0.36620890     0.21100
H1817       H  0.36442599  0.70158173  0.32352418     0.10800
C1818       C  0.34100209  0.71312460  0.36739007    -0.15100
C1819       C  0.33067561  0.70952816  0.37531438     0.03800
C1820       C  0.33126880  0.69783781  0.38229322    -0.10500
C1821       C  0.34265284  0.69048398  0.38190687    -0.00500
C1822       C  0.35286407  0.69398338  0.37384116    -0.05600
H1823       H  0.34024042  0.72178594  0.36158400     0.06800
H1824       H  0.34324655  0.68144546  0.38713350     0.10200
Br1825     Br  0.34115277  0.69697882  0.33865794    -0.05300
Br1826     Br  0.40031175  0.71694253  0.35354318    -0.02300
Br1827     Br  0.31596186  0.72079503  0.37598552     0.00600
Br1828     Br  0.36726305  0.68239279  0.37243804    -0.03800
C1829       C  0.27651210  0.77086579  0.07871287    -0.11200
C1830       C  0.27783368  0.76316248  0.06748466     0.04300
C1831       C  0.27119314  0.75140073  0.06653688    -0.11800
C1832       C  0.26307774  0.74725357  0.07649496     0.19100
C1833       C  0.26142181  0.75505892  0.08748363    -0.08800
C1834       C  0.26809115  0.76673450  0.08851017    -0.01800
H1835       H  0.27233406  0.74546341  0.05798523     0.05600
C1836       C  0.25656577  0.73464287  0.07546693     0.21100
H1837       H  0.26694098  0.77242070  0.09722517     0.10800
C1838       C  0.26358386  0.72335731  0.07800994    -0.15100
C1839       C  0.25738571  0.71134440  0.07855017     0.03800
C1840       C  0.24390601  0.71058634  0.07656936    -0.10500
C1841       C  0.23709034  0.72186126  0.07326681    -0.00500
C1842       C  0.24331178  0.73381789  0.07270295    -0.05600
H1843       H  0.27386445  0.72395277  0.07989904     0.06800
H1844       H  0.22675793  0.72149603  0.07163377     0.10200
Br1845     Br  0.25050022  0.74995116  0.10154541    -0.05300
Br1846     Br  0.28806637  0.76822155  0.05290927    -0.02300
Br1847     Br  0.26789682  0.69640942  0.08172979     0.00600
Br1848     Br  0.23330294  0.74884019  0.06849727    -0.03800
C1849       C  0.30559173  0.83476943  0.06004552    -0.11200
C1850       C  0.29573734  0.84375440  0.05692376     0.04300
C1851       C  0.29897525  0.85563530  0.05130106    -0.11800
C1852       C  0.31184785  0.85877630  0.04856502     0.19100
C1853       C  0.32157609  0.84960282  0.05102231    -0.08800
C1854       C  0.31838704  0.83772238  0.05655215    -0.01800
H1855       H  0.29143959  0.86263618  0.04938508     0.05600
C1856       C  0.31515359  0.87204711  0.04437923     0.21100
H1857       H  0.32614191  0.83108239  0.05882024     0.10800
C1858       C  0.31397659  0.88225101  0.05324191    -0.15100
C1859       C  0.31888193  0.89455973  0.05044131     0.03800
C1860       C  0.32522128  0.89676017  0.03855275    -0.10500
C1861       C  0.32526385  0.88678147  0.02927982    -0.00500
C1862       C  0.32029509  0.87454090  0.03209281    -0.05600
H1863       H  0.30969112  0.88048813  0.06260784     0.06800
H1864       H  0.32983914  0.88823171  0.02000369     0.10200
Br1865     Br  0.33954951  0.85328761  0.04826124    -0.05300
Br1866     Br  0.27773641  0.84084182  0.06035008    -0.02300
Br1867     Br  0.31669500  0.90771801  0.06336592     0.00600
Br1868     Br  0.32119545  0.86140004  0.01902373    -0.03800
C1869       C  0.43991567  0.86190409  0.03799389    -0.11200
C1870       C  0.43018024  0.85555721  0.03084572     0.04300
C1871       C  0.41944314  0.86255556  0.02645353    -0.11800
C1872       C  0.41823497  0.87584652  0.02905041     0.19100
C1873       C  0.42806831  0.88217149  0.03607156    -0.08800
C1874       C  0.43881000  0.87523891  0.04028157    -0.01800
H1875       H  0.41189127  0.85757338  0.02116354     0.05600
C1876       C  0.40602823  0.88259432  0.02586742     0.21100
H1877       H  0.44609433  0.88023919  0.04592679     0.10800
C1878       C  0.39467973  0.87860553  0.03205942    -0.15100
C1879       C  0.38344901  0.88603016  0.03134087     0.03800
C1880       C  0.38352816  0.89779692  0.02449497    -0.10500
C1881       C  0.39443818  0.90107307  0.01716100    -0.00500
C1882       C  0.40564413  0.89350328  0.01773203    -0.05600
H1883       H  0.39471992  0.86998396  0.03797521     0.06800
H1884       H  0.39453113  0.90992019  0.01159162     0.10200
Br1885     Br  0.42687300  0.89995846  0.04134362    -0.05300
Br1886     Br  0.43123616  0.83756898  0.02642536    -0.02300
Br1887     Br  0.36829894  0.87968288  0.03996514     0.00600
Br1888     Br  0.42026153  0.89862431  0.00757398    -0.03800
C1889       C  0.41855322  0.72529300  0.27373467    -0.11200
C1890       C  0.43088179  0.72717025  0.26818114     0.04300
C1891       C  0.43199509  0.73322781  0.25612439    -0.11800
C1892       C  0.42099757  0.73744232  0.24941348     0.19100
C1893       C  0.40873448  0.73563510  0.25497366    -0.08800
C1894       C  0.40761346  0.72967799  0.26699660    -0.01800
H1895       H  0.44147868  0.73465909  0.25195477     0.05600
C1896       C  0.42231790  0.74384440  0.23670100     0.21100
H1897       H  0.39804742  0.72823037  0.27097083     0.10800
C1898       C  0.41728727  0.73774814  0.22568525    -0.15100
C1899       C  0.41649150  0.74426686  0.21388880     0.03800
C1900       C  0.42113945  0.75710802  0.21287385    -0.10500
C1901       C  0.42698249  0.76283112  0.22375179    -0.00500
C1902       C  0.42743914  0.75639707  0.23561028    -0.05600
H1903       H  0.41341248  0.72804159  0.22642996     0.06800
H1904       H  0.43052114  0.77267795  0.22327668     0.10200
Br1905     Br  0.39318890  0.74136783  0.24663539    -0.05300
Br1906     Br  0.44654944  0.72219061  0.27672269    -0.02300
Br1907     Br  0.40859613  0.73507230  0.19980454     0.00600
Br1908     Br  0.43394472  0.76564464  0.25032187    -0.03800
C1909       C  0.43961241  0.79588586  0.15202592    -0.11200
C1910       C  0.44410280  0.80880999  0.15134191     0.04300
C1911       C  0.44918021  0.81355643  0.13975430    -0.11800
C1912       C  0.45013292  0.80562669  0.12880140     0.19100
C1913       C  0.44671971  0.79249927  0.12977686    -0.08800
C1914       C  0.44150946  0.78775010  0.14128373    -0.01800
H1915       H  0.45213906  0.82359101  0.13918410     0.05600
C1916       C  0.45407338  0.81135554  0.11631148     0.21100
H1917       H  0.43829597  0.77778524  0.14155552     0.10800
C1918       C  0.46597764  0.80801850  0.11079247    -0.15100
C1919       C  0.46985168  0.81318762  0.09890260     0.03800
C1920       C  0.46175057  0.82206057  0.09236405    -0.10500
C1921       C  0.44977252  0.82522907  0.09794580    -0.00500
C1922       C  0.44590684  0.81997360  0.10972505    -0.05600
H1923       H  0.47225883  0.80128235  0.11574416     0.06800
H1924       H  0.44333811  0.83195864  0.09319173     0.10200
Br1925     Br  0.44805652  0.78091301  0.11535241    -0.05300
Br1926     Br  0.44367240  0.82055789  0.16572921    -0.02300
Br1927     Br  0.48606156  0.80728227  0.09213535     0.00600
Br1928     Br  0.42916693  0.82460546  0.11619876    -0.03800
C1929       C  0.38120611  0.77385046  0.15284460    -0.11200
C1930       C  0.36835430  0.77787852  0.15507157     0.04300
C1931       C  0.35945632  0.77783102  0.14497087    -0.11800
C1932       C  0.36290657  0.77354098  0.13262156     0.19100
C1933       C  0.37543620  0.76869705  0.13053799    -0.08800
C1934       C  0.38448026  0.76886289  0.14062964    -0.01800
H1935       H  0.34980682  0.78150265  0.14669131     0.05600
C1936       C  0.35349974  0.77547180  0.12204042     0.21100
H1937       H  0.39423390  0.76558251  0.13875375     0.10800
C1938       C  0.35604466  0.78498541  0.11276685    -0.15100
C1939       C  0.34624802  0.78955810  0.10465189     0.03800
C1940       C  0.33358022  0.78454801  0.10578220    -0.10500
C1941       C  0.33131488  0.77439928  0.11449207    -0.00500
C1942       C  0.34113879  0.76983353  0.12253553    -0.05600
H1943       H  0.36547955  0.78952218  0.11245299     0.06800
H1944       H  0.32172608  0.77029289  0.11539094     0.10200
Br1945     Br  0.38057487  0.76186627  0.11411301    -0.05300
Br1946     Br  0.36210809  0.78346700  0.17163081    -0.02300
Br1947     Br  0.35057336  0.80370540  0.09348685     0.00600
Br1948     Br  0.33712389  0.75626850  0.13448151    -0.03800
C1949       C  0.29409231  0.83007635  0.12056380    -0.11200
C1950       C  0.28335764  0.83841451  0.12190214     0.04300
C1951       C  0.28326670  0.84771069  0.13177905    -0.11800
C1952       C  0.29368214  0.84875430  0.14036432     0.19100
C1953       C  0.30413229  0.84017165  0.13931193    -0.08800
C1954       C  0.30428343  0.83098488  0.12947816    -0.01800
H1955       H  0.27516444  0.85427426  0.13264671     0.05600
C1956       C  0.29370757  0.85872113  0.15051177     0.21100
H1957       H  0.31254061  0.82459896  0.12871197     0.10800
C1958       C  0.28901267  0.85551614  0.16272852    -0.15100
C1959       C  0.29135785  0.86354922  0.17333665     0.03800
C1960       C  0.29872626  0.87499571  0.17175858    -0.10500
C1961       C  0.30241016  0.87867541  0.15923291    -0.00500
C1962       C  0.29997304  0.87062583  0.14865723    -0.05600
H1963       H  0.28403217  0.84640552  0.16412472     0.06800
H1964       H  0.30789494  0.88746438  0.15771626     0.10200
Br1965     Br  0.31855384  0.84078974  0.15097244    -0.05300
Br1966     Br  0.26899918  0.83822796  0.11018227    -0.02300
Br1967     Br  0.28443896  0.85795506  0.18958635     0.00600
Br1968     Br  0.30619826  0.87578520  0.13202237    -0.03800
C1969       C  0.34405599  0.86261727  0.21145458    -0.11200
C1970       C  0.34119340  0.84965367  0.20834602     0.04300
C1971       C  0.35111165  0.84051635  0.20779349    -0.11800
C1972       C  0.36400247  0.84406073  0.21012672     0.19100
C1973       C  0.36682593  0.85697890  0.21354099    -0.08800
C1974       C  0.35684620  0.86607627  0.21436280    -0.01800
H1975       H  0.34881356  0.83068769  0.20495641     0.05600
C1976       C  0.37431143  0.83447011  0.20743498     0.21100
H1977       H  0.35920323  0.87605882  0.21653821     0.10800
C1978       C  0.38313817  0.83700875  0.19750134    -0.15100
C1979       C  0.39190028  0.82760813  0.19333973     0.03800
C1980       C  0.39169180  0.81515267  0.19893491    -0.10500
C1981       C  0.38313218  0.81277190  0.20918848    -0.00500
C1982       C  0.37458511  0.82231009  0.21352416    -0.05600
H1983       H  0.38287204  0.84623176  0.19257768     0.06800
H1984       H  0.38291105  0.80334981  0.21372425     0.10200
Br1985     Br  0.38416003  0.86283105  0.21665473    -0.05300
Br1986     Br  0.32394926  0.84393586  0.20453223    -0.02300
Br1987     Br  0.40301776  0.83228060  0.17927322     0.00600
Br1988     Br  0.36345355  0.81822665  0.22774465    -0.03800
C1989       C  0.48301122  0.87825680  0.08090138    -0.11200
C1990       C  0.49017804  0.87734575  0.09249567     0.04300
C1991       C  0.48914498  0.88713480  0.10182545    -0.11800
C1992       C  0.48103197  0.89779555  0.09983709     0.19100
C1993       C  0.47479892  0.89923851  0.08785887    -0.08800
C1994       C  0.47594005  0.88960189  0.07850222    -0.01800
H1995       H  0.49406522  0.88604924  0.11098934     0.05600
C1996       C  0.47787193  0.90656060  0.11066920     0.21100
H1997       H  0.47048302  0.89060650  0.06963335     0.10800
C1998       C  0.48178452  0.91950567  0.11016506    -0.15100
C1999       C  0.47669528  0.92864429  0.11873381     0.03800
C2000       C  0.46735333  0.92484630  0.12797110    -0.10500
C2001       C  0.46441546  0.91163664  0.12919085    -0.00500
C2002       C  0.46957620  0.90252364  0.12063963    -0.05600
H2003       H  0.48837664  0.92261688  0.10267426     0.06800
H2004       H  0.45744893  0.90844799  0.13629558     0.10200
Br2005     Br  0.46332534  0.91339064  0.08434064    -0.05300
Br2006     Br  0.50038211  0.86251656  0.09691081    -0.02300
Br2007     Br  0.48286844  0.94608440  0.11702935     0.00600
Br2008     Br  0.46401764  0.88488206  0.12220809    -0.03800
C2009       C  0.41010514  0.94320845  0.17212072    -0.11200
C2010       C  0.40257708  0.95184616  0.17960291     0.04300
C2011       C  0.39057029  0.94782720  0.18449124    -0.11800
C2012       C  0.38594647  0.93528845  0.18212105     0.19100
C2013       C  0.39359952  0.92659004  0.17505649    -0.08800
C2014       C  0.40552888  0.93054320  0.17019842    -0.01800
H2015       H  0.38481977  0.95449350  0.19015236     0.05600
C2016       C  0.37319771  0.93120243  0.18709309     0.21100
H2017       H  0.41104479  0.92374050  0.16446658     0.10800
C2018       C  0.36220466  0.93272824  0.17933917    -0.15100
C2019       C  0.35032622  0.92729298  0.18291502     0.03800
C2020       C  0.34930854  0.92024390  0.19455948    -0.10500
C2021       C  0.36026367  0.91931407  0.20257205    -0.00500
C2022       C  0.37213342  0.92459759  0.19886495    -0.05600
H2023       H  0.36298951  0.93777902  0.17022916     0.06800
H2024       H  0.35980642  0.91387262  0.21147465     0.10200
Br2025     Br  0.38798899  0.90924390  0.17153687    -0.05300
Br2026     Br  0.40830332  0.96896449  0.18395580    -0.02300
Br2027     Br  0.33604414  0.92975900  0.17133431     0.00600
Br2028     Br  0.38689821  0.92180675  0.20970428    -0.03800
C2029       C  0.37473199  0.94703357  0.06293943    -0.11200
C2030       C  0.37153544  0.94630587  0.07618266     0.04300
C2031       C  0.37994838  0.95153310  0.08542081    -0.11800
C2032       C  0.39160949  0.95737130  0.08176485     0.19100
C2033       C  0.39444565  0.95876361  0.06858509    -0.08800
C2034       C  0.38603037  0.95367865  0.05932986    -0.01800
H2035       H  0.37783340  0.95019434  0.09556772     0.05600
C2036       C  0.40172281  0.95919305  0.09167404     0.21100
H2037       H  0.38860832  0.95453711  0.04924081     0.10800
C2038       C  0.41194907  0.95035434  0.09180491    -0.15100
C2039       C  0.42070012  0.95003891  0.10202180     0.03800
C2040       C  0.41935963  0.95879951  0.11242260    -0.10500
C2041       C  0.40957715  0.96820424  0.11191106    -0.00500
C2042       C  0.40067685  0.96835348  0.10169090    -0.05600
H2043       H  0.41281518  0.94327007  0.08412767     0.06800
H2044       H  0.40844420  0.97502183  0.11978065     0.10200
Br2045     Br  0.41005104  0.96692287  0.06281079    -0.05300
Br2046     Br  0.35677426  0.93705758  0.08253242    -0.02300
Br2047     Br  0.43417270  0.93728540  0.10109838     0.00600
Br2048     Br  0.38708792  0.98092391  0.10194994    -0.03800
C2049       C  0.68586129  0.58322756  0.53827448    -0.11200
C2050       C  0.68634411  0.59429868  0.53021955     0.04300
C2051       C  0.69204170  0.60574023  0.53473288    -0.11800
C2052       C  0.69744422  0.60647033  0.54709285     0.19100
C2053       C  0.69804784  0.59521276  0.55466570    -0.08800
C2054       C  0.69237457  0.58372182  0.55020869    -0.01800
H2055       H  0.69161345  0.61435892  0.52882706     0.05600
C2056       C  0.70015779  0.61938725  0.55270500     0.21100
H2057       H  0.69231362  0.57540327  0.55653208     0.10800
C2058       C  0.68967557  0.62679316  0.55698091    -0.15100
C2059       C  0.69152110  0.63876641  0.56302236     0.03800
C2060       C  0.70418946  0.64354546  0.56503841    -0.10500
C2061       C  0.71467293  0.63626812  0.56027215    -0.00500
C2062       C  0.71273077  0.62436054  0.55403697    -0.05600
H2063       H  0.67994721  0.62307273  0.55584302     0.06800
H2064       H  0.72446003  0.63976702  0.56153616     0.10200
Br2065     Br  0.70530553  0.59542698  0.57170534    -0.05300
Br2066     Br  0.67876436  0.59504582  0.51330552    -0.02300
Br2067     Br  0.67622859  0.64747894  0.56888518     0.00600
Br2068     Br  0.72743535  0.61526670  0.54742035    -0.03800
C2069       C  0.52259037  0.65592416  0.52251838    -0.11200
C2070       C  0.52309079  0.66671063  0.51412937     0.04300
C2071       C  0.51625663  0.66645507  0.50242370    -0.11800
C2072       C  0.50885865  0.65565790  0.49888479     0.19100
C2073       C  0.50812442  0.64505242  0.50727471    -0.08800
C2074       C  0.51488789  0.64525767  0.51893859    -0.01800
H2075       H  0.51672537  0.67471121  0.49603073     0.05600
C2076       C  0.50186269  0.65549447  0.48644953     0.21100
H2077       H  0.51432605  0.63682921  0.52509081     0.10800
C2078       C  0.50796749  0.65051231  0.47544907    -0.15100
C2079       C  0.50113468  0.64883165  0.46387994     0.03800
C2080       C  0.48792165  0.65225066  0.46320599    -0.10500
C2081       C  0.48205096  0.65779886  0.47412914    -0.00500
C2082       C  0.48886985  0.65932287  0.48569427    -0.05600
H2083       H  0.51800513  0.64760247  0.47597308     0.06800
H2084       H  0.47193095  0.66043886  0.47387431     0.10200
Br2085     Br  0.49815026  0.62996124  0.50304533    -0.05300
Br2086     Br  0.53263298  0.68216938  0.51798937    -0.02300
Br2087     Br  0.51048282  0.64199998  0.44940223     0.00600
Br2088     Br  0.47990617  0.66600761  0.50045734    -0.03800
C2089       C  0.57947737  0.63038007  0.53618354    -0.11200
C2090       C  0.59270756  0.63212158  0.53917518     0.04300
C2091       C  0.60174511  0.62281636  0.53523580    -0.11800
C2092       C  0.59788008  0.61180386  0.52829492     0.19100
C2093       C  0.58493138  0.61058901  0.52443975    -0.08800
C2094       C  0.57591045  0.61983386  0.52830882    -0.01800
H2095       H  0.61172541  0.62379059  0.53825211     0.05600
C2096       C  0.60693042  0.60082613  0.52701979     0.21100
H2097       H  0.56589273  0.61837816  0.52563568     0.10800
C2098       C  0.60510123  0.59009877  0.53503661    -0.15100
C2099       C  0.61401907  0.57998841  0.53526549     0.03800
C2100       C  0.62498803  0.58039989  0.52717168    -0.10500
C2101       C  0.62649591  0.59088479  0.51869093    -0.00500
C2102       C  0.61765433  0.60115319  0.51870611    -0.05600
H2103       H  0.59685008  0.58978191  0.54145583     0.06800
H2104       H  0.63489386  0.59140541  0.51248721     0.10200
Br2105     Br  0.57900079  0.59608439  0.51446858    -0.05300
Br2106     Br  0.59903673  0.64617587  0.54952598    -0.02300
Br2107     Br  0.61059054  0.56595774  0.54690678     0.00600
Br2108     Br  0.62072769  0.61557266  0.50754148    -0.03800
C2109       C  0.57119604  0.69532737  0.65110833    -0.11200
C2110       C  0.56420164  0.70458247  0.64386619     0.04300
C2111       C  0.55858569  0.70108195  0.63202446    -0.11800
C2112       C  0.55957765  0.68842350  0.62727123     0.19100
C2113       C  0.56586758  0.67902224  0.63481347    -0.08800
C2114       C  0.57150358  0.68248586  0.64660855    -0.01800
H2115       H  0.55362301  0.70833727  0.62636578     0.05600
C2116       C  0.55497713  0.68533440  0.61404207     0.21100
H2117       H  0.57679358  0.67519489  0.65191251     0.10800
C2118       C  0.56209461  0.68974160  0.60341373    -0.15100
C2119       C  0.55931356  0.68536148  0.59089352     0.03800
C2120       C  0.54952383  0.67603938  0.58889999    -0.10500
C2121       C  0.54161554  0.67264580  0.59943574    -0.00500
C2122       C  0.54417240  0.67736415  0.61187985    -0.05600
H2123       H  0.57009381  0.69634349  0.60491019     0.06800
H2124       H  0.53375806  0.66583887  0.59814051     0.10200
Br2125     Br  0.56801134  0.66154136  0.62891331    -0.05300
Br2126     Br  0.56185089  0.72212250  0.64949188    -0.02300
Br2127     Br  0.56894254  0.69274829  0.57693066     0.00600
Br2128     Br  0.53283275  0.67261398  0.62571686    -0.03800
C2129       C  0.63024662  0.71175848  0.65245743    -0.11200
C2130       C  0.62836159  0.71773649  0.64035462     0.04300
C2131       C  0.63797994  0.71679264  0.63084769    -0.11800
C2132       C  0.64948690  0.71005149  0.63328108     0.19100
C2133       C  0.65161555  0.70474364  0.64557200    -0.08800
C2134       C  0.64204686  0.70558721  0.65497602    -0.01800
H2135       H  0.63626126  0.72083561  0.62137058     0.05600
C2136       C  0.65865098  0.70723797  0.62272268     0.21100
H2137       H  0.64368901  0.70098852  0.66421568     0.10800
C2138       C  0.67047409  0.71381189  0.62224564    -0.15100
C2139       C  0.68054057  0.70932343  0.61440626     0.03800
C2140       C  0.67882890  0.69798548  0.60689038    -0.10500
C2141       C  0.66656093  0.69215237  0.60656037    -0.00500
C2142       C  0.65656120  0.69662125  0.61446516    -0.05600
H2143       H  0.67210443  0.72205273  0.62851903     0.06800
H2144       H  0.66498159  0.68350300  0.60085342     0.10200
Br2145     Br  0.66706207  0.69534607  0.64967872    -0.05300
Br2146     Br  0.61247549  0.72610971  0.63578686    -0.02300
Br2147     Br  0.69639469  0.71898993  0.61471210     0.00600
Br2148     Br  0.64067052  0.68705045  0.61476716    -0.03800
C2149       C  0.54813934  0.56793129  0.62804038    -0.11200
C2150       C  0.53853640  0.56660339  0.61843647     0.04300
C2151       C  0.53596242  0.57688338  0.61010798    -0.11800
C2152       C  0.54277555  0.58851158  0.61128466     0.19100
C2153       C  0.55143869  0.59028339  0.62160280    -0.08800
C2154       C  0.55402642  0.58002380  0.62994994    -0.01800
H2155       H  0.52911825  0.57558336  0.60229260     0.05600
C2156       C  0.54214983  0.59797534  0.60076100     0.21100
H2157       H  0.56134234  0.58124102  0.63733926     0.10800
C2158       C  0.53226981  0.60720440  0.60048835    -0.15100
C2159       C  0.53224546  0.61693901  0.59112995     0.03800
C2160       C  0.54231358  0.61747537  0.58196346    -0.10500
C2161       C  0.55191536  0.60791012  0.58204403    -0.00500
C2162       C  0.55181999  0.59813975  0.59125710    -0.05600
H2163       H  0.52479744  0.60705191  0.60779491     0.06800
H2164       H  0.55962383  0.60810800  0.57498119     0.10200
Br2165     Br  0.56071905  0.60620751  0.62390581    -0.05300
Br2166     Br  0.52879975  0.55095639  0.61611052    -0.02300
Br2167     Br  0.51888504  0.62976037  0.59208019     0.00600
Br2168     Br  0.56521216  0.58531449  0.59065306    -0.03800
C2169       C  0.59191752  0.52362307  0.61418859    -0.11200
C2170       C  0.58905653  0.52671072  0.60121836     0.04300
C2171       C  0.59891592  0.52680719  0.59201278    -0.11800
C2172       C  0.61165627  0.52376897  0.59541561     0.19100
C2173       C  0.61433475  0.51963835  0.60805990    -0.08800
C2174       C  0.60447959  0.51951698  0.61732330    -0.01800
H2175       H  0.59673656  0.52981866  0.58224393     0.05600
C2176       C  0.62205019  0.52657909  0.58602795     0.21100
H2177       H  0.60685136  0.51696272  0.62717385     0.10800
C2178       C  0.62918180  0.53801016  0.58753311    -0.15100
C2179       C  0.63743664  0.54240663  0.57778985     0.03800
C2180       C  0.63875903  0.53520884  0.56623277    -0.10500
C2181       C  0.63198961  0.52345068  0.56502120    -0.00500
C2182       C  0.62370237  0.51912821  0.57479174    -0.05600
H2183       H  0.62777014  0.54392126  0.59606504     0.06800
H2184       H  0.63285460  0.51776473  0.55627221     0.10200
Br2185     Br  0.63138758  0.51455939  0.61315511    -0.05300
Br2186     Br  0.57196042  0.53103369  0.59542661    -0.02300
Br2187     Br  0.64529267  0.55904753  0.58038879     0.00600
Br2188     Br  0.61454117  0.50318975  0.57231498    -0.03800
C2189       C  0.70636187  0.60779973  0.67580541    -0.11200
C2190       C  0.69952591  0.60788812  0.66396417     0.04300
C2191       C  0.70398719  0.61548024  0.65377733    -0.11800
C2192       C  0.71505865  0.62313976  0.65513848     0.19100
C2193       C  0.72220494  0.62265537  0.66664038    -0.08800
C2194       C  0.71788819  0.61496423  0.67682966    -0.01800
H2195       H  0.69836031  0.61600533  0.64496829     0.05600
C2196       C  0.71769941  0.63291321  0.64519259     0.21100
H2197       H  0.72331653  0.61500089  0.68577200     0.10800
C2198       C  0.71358773  0.64561285  0.64746777    -0.15100
C2199       C  0.71365498  0.65473628  0.63757931     0.03800
C2200       C  0.71795552  0.65116551  0.62517041    -0.10500
C2201       C  0.72288371  0.63867721  0.62313738    -0.00500
C2202       C  0.72266315  0.62951061  0.63303526    -0.05600
H2203       H  0.70980416  0.64828262  0.65684849     0.06800
H2204       H  0.72625710  0.63582868  0.61365608     0.10200
Br2205     Br  0.73755943  0.63278062  0.66899037    -0.05300
Br2206     Br  0.68331654  0.59918933  0.66128698    -0.02300
Br2207     Br  0.70776563  0.67188801  0.64159323     0.00600
Br2208     Br  0.72871600  0.61235769  0.62947037    -0.03800
C2209       C  0.65605880  0.56740393  0.70115559    -0.11200
C2210       C  0.64463393  0.56658809  0.70864215     0.04300
C2211       C  0.63343803  0.56114359  0.70328848    -0.11800
C2212       C  0.63336809  0.55643532  0.69061199     0.19100
C2213       C  0.64486639  0.55651330  0.68343438    -0.08800
C2214       C  0.65606970  0.56187109  0.68873054    -0.01800
H2215       H  0.62459142  0.56104258  0.70886399     0.05600
C2216       C  0.62096995  0.55294589  0.68447234     0.21100
H2217       H  0.66466603  0.56224686  0.68279630     0.10800
C2218       C  0.61499159  0.56206520  0.67652646    -0.15100
C2219       C  0.60356394  0.55914872  0.66994414     0.03800
C2220       C  0.59783520  0.54674885  0.67128279    -0.10500
C2221       C  0.60378022  0.53773294  0.67954361    -0.00500
C2222       C  0.61522529  0.54076097  0.68612800    -0.05600
H2223       H  0.61940980  0.57148326  0.67526141     0.06800
H2224       H  0.59964492  0.52818901  0.68074252     0.10200
Br2225     Br  0.64553738  0.54999570  0.66609647    -0.05300
Br2226     Br  0.64331498  0.57297604  0.72601074    -0.02300
Br2227     Br  0.59697335  0.57253063  0.65890850     0.00600
Br2228     Br  0.62294939  0.52787448  0.69691372    -0.03800
C2229       C  0.61984052  0.67526089  0.70240039    -0.11200
C2230       C  0.61816272  0.66196268  0.69965922     0.04300
C2231       C  0.62675238  0.65291075  0.70482108    -0.11800
C2232       C  0.63700291  0.65677739  0.71279414     0.19100
C2233       C  0.63821221  0.66988168  0.71622571    -0.08800
C2234       C  0.62970152  0.67899526  0.71102167    -0.01800
H2235       H  0.62585024  0.64284513  0.70202601     0.05600
C2236       C  0.64733809  0.64734352  0.71566011     0.21100
H2237       H  0.63105630  0.68910438  0.71343691     0.10800
C2238       C  0.65919348  0.64874478  0.70931873    -0.15100
C2239       C  0.66856379  0.63905889  0.70985337     0.03800
C2240       C  0.66619994  0.62767611  0.71704277    -0.10500
C2241       C  0.65463456  0.62669410  0.72408659    -0.00500
C2242       C  0.64514848  0.63631131  0.72326282    -0.05600
H2243       H  0.66091631  0.65717995  0.70338002     0.06800
H2244       H  0.65257883  0.61804361  0.72958519     0.10200
Br2245     Br  0.65155364  0.67572397  0.72772688    -0.05300
Br2246     Br  0.60529831  0.65548420  0.68794090    -0.02300
Br2247     Br  0.68408523  0.64196753  0.70009125     0.00600
Br2248     Br  0.62910620  0.63368974  0.73210851    -0.03800
C2249       C  0.85329410  0.91547466  0.69603250    -0.11200
C2250       C  0.86221231  0.91876025  0.70591915     0.04300
C2251       C  0.87411122  0.92446483  0.70274374    -0.11800
C2252       C  0.87726290  0.92726907  0.68989866     0.19100
C2253       C  0.86813631  0.92465549  0.68015052    -0.08800
C2254       C  0.85632542  0.91890335  0.68325935    -0.01800
H2255       H  0.88103404  0.92655036  0.71031768     0.05600
C2256       C  0.89040944  0.93191811  0.68657317     0.21100
H2257       H  0.84972425  0.91657398  0.67547634     0.10800
C2258       C  0.90078241  0.92323520  0.68712453    -0.15100
C2259       C  0.91282033  0.92638454  0.68178567     0.03800
C2260       C  0.91457039  0.93844176  0.67554716    -0.10500
C2261       C  0.90447112  0.94754835  0.67617521    -0.00500
C2262       C  0.89252216  0.94439726  0.68165693    -0.05600
H2263       H  0.89932861  0.91370731  0.69119874     0.06800
H2264       H  0.90559373  0.95697548  0.67179243     0.10200
Br2265     Br  0.87172406  0.92779276  0.66225254    -0.05300
Br2266     Br  0.85895488  0.91579620  0.72390738    -0.02300
Br2267     Br  0.92612798  0.91351789  0.68307748     0.00600
Br2268     Br  0.87914740  0.95722264  0.68170828    -0.03800
C2269       C  0.98094403  0.86496681  0.58218246    -0.11200
C2270       C  0.98278293  0.86221545  0.59545020     0.04300
C2271       C  0.98205592  0.87221946  0.60457538    -0.11800
C2272       C  0.97931398  0.88495947  0.60084509     0.19100
C2273       C  0.97892248  0.88791320  0.58758147    -0.08800
C2274       C  0.97978804  0.87798360  0.57844191    -0.01800
H2275       H  0.98279492  0.86990711  0.61473996     0.05600
C2276       C  0.97531468  0.89456708  0.61077245     0.21100
H2277       H  0.97866202  0.88043978  0.56835093     0.10800
C2278       C  0.98209811  0.90625447  0.61218705    -0.15100
C2279       C  0.97746945  0.91608611  0.62029714     0.03800
C2280       C  0.96610609  0.91410967  0.62756526    -0.10500
C2281       C  0.95982799  0.90211276  0.62677724    -0.00500
C2282       C  0.96415676  0.89249542  0.61832496    -0.05600
H2283       H  0.99078103  0.90791203  0.60660592     0.06800
H2284       H  0.95098265  0.90050604  0.63212104     0.10200
Br2285     Br  0.97585025  0.90508111  0.58129087    -0.05300
Br2286     Br  0.98539028  0.84508878  0.60208526    -0.02300
Br2287     Br  0.98702692  0.93199074  0.62099932     0.00600
Br2288     Br  0.95359055  0.87730853  0.61652076    -0.03800
C2289       C  0.88854476  0.80375320  0.69706985    -0.11200
C2290       C  0.87836575  0.80103314  0.70579026     0.04300
C2291       C  0.87001531  0.81092962  0.70968167    -0.11800
C2292       C  0.87172058  0.82355097  0.70518176     0.19100
C2293       C  0.88247746  0.82649562  0.69745188    -0.08800
C2294       C  0.89081056  0.81664468  0.69349097    -0.01800
H2295       H  0.86180682  0.80865956  0.71574626     0.05600
C2296       C  0.86124481  0.83304579  0.70678263     0.21100
H2297       H  0.89861045  0.81899307  0.68694275     0.10800
C2298       C  0.86121302  0.84158974  0.71730895    -0.15100
C2299       C  0.85240121  0.85188611  0.71782614     0.03800
C2300       C  0.84358024  0.85372630  0.70757151    -0.10500
C2301       C  0.84316477  0.84457744  0.69752317    -0.00500
C2302       C  0.85186134  0.83432614  0.69707691    -0.05600
H2303       H  0.86840339  0.84057102  0.72483846     0.06800
H2304       H  0.83633399  0.84566490  0.68967038     0.10200
Br2305     Br  0.88546599  0.84367337  0.69117064    -0.05300
Br2306     Br  0.87512489  0.78409158  0.71265173    -0.02300
Br2307     Br  0.85371641  0.86362695  0.73212929     0.00600
Br2308     Br  0.85114033  0.82277010  0.68254646    -0.03800
C2309       C  0.93237010  0.78244310  0.64276505    -0.11200
C2310       C  0.94164239  0.79246968  0.64229654     0.04300
C2311       C  0.94654631  0.79654160  0.63038797    -0.11800
C2312       C  0.94239073  0.79080180  0.61884354     0.19100
C2313       C  0.93366218  0.78040257  0.61928586    -0.08800
C2314       C  0.92876864  0.77627338  0.63116905    -0.01800
H2315       H  0.95336073  0.80449504  0.63009410     0.05600
C2316       C  0.94631841  0.79663379  0.60645650     0.21100
H2317       H  0.92167092  0.76856909  0.63126020     0.10800
C2318       C  0.95797083  0.79300315  0.60061773    -0.15100
C2319       C  0.96228614  0.79915992  0.58936514     0.03800
C2320       C  0.95479566  0.80914345  0.58377496    -0.10500
C2321       C  0.94290262  0.81235766  0.58948330    -0.00500
C2322       C  0.93872144  0.80630487  0.60074994    -0.05600
H2323       H  0.96382304  0.78550098  0.60495554     0.06800
H2324       H  0.93702094  0.82002725  0.58549312     0.10200
Br2325     Br  0.92774874  0.77200851  0.60383399    -0.05300
Br2326     Br  0.94815291  0.80088845  0.65748932    -0.02300
Br2327     Br  0.97836765  0.79335206  0.58219740     0.00600
Br2328     Br  0.92285949  0.81204303  0.60841694    -0.03800
C2329       C  0.87211292  0.93850630  0.56402417    -0.11200
C2330       C  0.88342483  0.94580235  0.56162734     0.04300
C2331       C  0.89191646  0.94860420  0.57174192    -0.11800
C2332       C  0.88921310  0.94449591  0.58428845     0.19100
C2333       C  0.87747982  0.93818047  0.58691054    -0.08800
C2334       C  0.86903742  0.93519188  0.57679822    -0.01800
H2335       H  0.90084459  0.95370034  0.56975962     0.05600
C2336       C  0.89927041  0.94569347  0.59424756     0.21100
H2337       H  0.86032067  0.92978515  0.57887924     0.10800
C2338       C  0.90060634  0.95721768  0.60126160    -0.15100
C2339       C  0.90975309  0.95824270  0.61119680     0.03800
C2340       C  0.91763611  0.94751649  0.61421418    -0.10500
C2341       C  0.91647570  0.93616352  0.60681574    -0.00500
C2342       C  0.90747037  0.93522260  0.59687151    -0.05600
H2343       H  0.89434385  0.96533089  0.59916251     0.06800
H2344       H  0.92257286  0.92789676  0.60881567     0.10200
Br2345     Br  0.87291429  0.93306141  0.60409415    -0.05300
Br2346     Br  0.88776712  0.95250104  0.54491356    -0.02300
Br2347     Br  0.91036431  0.97417878  0.62069071     0.00600
Br2348     Br  0.90665631  0.91940626  0.58714847    -0.03800
C2349       C  0.87867044  0.89279679  0.52498096    -0.11200
C2350       C  0.88912171  0.89433418  0.51635107     0.04300
C2351       C  0.89988478  0.88612913  0.51728882    -0.11800
C2352       C  0.90026792  0.87623470  0.52651526     0.19100
C2353       C  0.88936862  0.87396471  0.53424548    -0.08800
C2354       C  0.87874032  0.88220714  0.53346400    -0.01800
H2355       H  0.90825659  0.88790755  0.51128673     0.05600
C2356       C  0.91264299  0.86982647  0.52959878     0.21100
H2357       H  0.87071707  0.88066442  0.53998778     0.10800
C2358       C  0.92000809  0.87487622  0.53976962    -0.15100
C2359       C  0.93109703  0.86856589  0.54412931     0.03800
C2360       C  0.93501384  0.85683769  0.53827441    -0.10500
C2361       C  0.92772830  0.85191406  0.52788181    -0.00500
C2362       C  0.91666072  0.85837952  0.52346888    -0.05600
H2363       H  0.91686815  0.88362630  0.54461020     0.06800
H2364       H  0.93062312  0.84299986  0.52320418     0.10200
Br2365     Br  0.88898576  0.86027681  0.54670662    -0.05300
Br2366     Br  0.88990876  0.90811291  0.50402382    -0.02300
Br2367     Br  0.93971393  0.87605129  0.55880703     0.00600
Br2368     Br  0.90713776  0.85118878  0.50929406    -0.03800
C2369       C  0.77298077  0.76558691  0.57656250    -0.11200
C2370       C  0.77676019  0.75507069  0.56858693     0.04300
C2371       C  0.76974999  0.74347491  0.56886866    -0.11800
C2372       C  0.75905062  0.74205526  0.57697348     0.19100
C2373       C  0.75506861  0.75250773  0.58466000    -0.08800
C2374       C  0.76192310  0.76414143  0.58433446    -0.01800
H2375       H  0.77283587  0.73540021  0.56294918     0.05600
C2376       C  0.75244090  0.72944569  0.57780285     0.21100
H2377       H  0.75880337  0.77194233  0.59058329     0.10800
C2378       C  0.75686135  0.72030112  0.58670081    -0.15100
C2379       C  0.75009684  0.70875780  0.58872095     0.03800
C2380       C  0.73859307  0.70624494  0.58170409    -0.10500
C2381       C  0.73460237  0.71523733  0.57234642    -0.00500
C2382       C  0.74139270  0.72675662  0.57040518    -0.05600
H2383       H  0.76546438  0.72231126  0.59232959     0.06800
H2384       H  0.72586627  0.71357088  0.56682430     0.10200
Br2385     Br  0.74068184  0.75107044  0.59623475    -0.05300
Br2386     Br  0.79162601  0.75536381  0.55751665    -0.02300
Br2387     Br  0.75725709  0.69705220  0.60118855     0.00600
Br2388     Br  0.73497438  0.73881224  0.55793400    -0.03800
C2389       C  0.82878775  0.77657661  0.60325940    -0.11200
C2390       C  0.84209471  0.77905364  0.60142298     0.04300
C2391       C  0.85107995  0.77456530  0.61047744    -0.11800
C2392       C  0.84720009  0.76711731  0.62110367     0.19100
C2393       C  0.83411759  0.76357091  0.62220576    -0.08800
C2394       C  0.82507394  0.76837561  0.61342650    -0.01800
H2395       H  0.86111005  0.77739052  0.60950338     0.05600
C2396       C  0.85655801  0.76468896  0.63169317     0.21100
H2397       H  0.81498361  0.76598689  0.61483745     0.10800
C2398       C  0.85390853  0.76986095  0.64395273    -0.15100
C2399       C  0.86318792  0.76967394  0.65373810     0.03800
C2400       C  0.87543314  0.76424037  0.65135106    -0.10500
C2401       C  0.87782933  0.75830312  0.63940673    -0.00500
C2402       C  0.86857203  0.75862335  0.62954344    -0.05600
H2403       H  0.84476896  0.77462666  0.64575089     0.06800
H2404       H  0.88723307  0.75415763  0.63743920     0.10200
Br2405     Br  0.82805384  0.75237515  0.63565410    -0.05300
Br2406     Br  0.84874334  0.78904222  0.58733011    -0.02300
Br2407     Br  0.85871823  0.77724686  0.67009337     0.00600
Br2408     Br  0.87305233  0.75114862  0.61319252    -0.03800
C2409       C  0.80086817  0.83060760  0.55780909    -0.11200
C2410       C  0.81208544  0.83378460  0.55068847     0.04300
C2411       C  0.81394848  0.84647209  0.54636066    -0.11800
C2412       C  0.80489673  0.85617542  0.54904919     0.19100
C2413       C  0.79335046  0.85290461  0.55534199    -0.08800
C2414       C  0.79135516  0.84020840  0.55954036    -0.01800
H2415       H  0.82282713  0.84893516  0.54141041     0.05600
C2416       C  0.80844251  0.86978910  0.54651796     0.21100
H2417       H  0.78265252  0.83809087  0.56492944     0.10800
C2418       C  0.80745171  0.87479417  0.53401176    -0.15100
C2419       C  0.81259986  0.88697388  0.53101000     0.03800
C2420       C  0.81902082  0.89429545  0.54064921    -0.10500
C2421       C  0.81907724  0.88958282  0.55337735    -0.00500
C2422       C  0.81397563  0.87742765  0.55631811    -0.05600
H2423       H  0.80304122  0.86901526  0.52646367     0.06800
H2424       H  0.82392869  0.89493902  0.56096295     0.10200
Br2425     Br  0.78050791  0.86569395  0.55920694    -0.05300
Br2426     Br  0.82549423  0.82155119  0.54687808    -0.02300
Br2427     Br  0.81071777  0.89282038  0.51354709     0.00600
Br2428     Br  0.81587125  0.87112379  0.57362845    -0.03800
C2429       C  0.79558852  0.82619734  0.61604121    -0.11200
C2430       C  0.78483397  0.83419716  0.61865084     0.04300
C2431       C  0.78568474  0.84364377  0.62833579    -0.11800
C2432       C  0.79712302  0.84531526  0.63538360     0.19100
C2433       C  0.80778398  0.83731494  0.63286762    -0.08800
C2434       C  0.80696251  0.82790391  0.62327093    -0.01800
H2435       H  0.77743687  0.84976702  0.63032940     0.05600
C2436       C  0.79769656  0.85486514  0.64590557     0.21100
H2437       H  0.81531056  0.82185112  0.62148125     0.10800
C2438       C  0.79296047  0.85133522  0.65800740    -0.15100
C2439       C  0.79535886  0.85900200  0.66885468     0.03800
C2440       C  0.80279863  0.87045775  0.66764250    -0.10500
C2441       C  0.80661687  0.87444487  0.65524560    -0.00500
C2442       C  0.80413152  0.86673251  0.64442292    -0.05600
H2443       H  0.78784462  0.84225664  0.65911027     0.06800
H2444       H  0.81215827  0.88324241  0.65400868     0.10200
Br2445     Br  0.82361315  0.83872865  0.64246066    -0.05300
Br2446     Br  0.76905176  0.83329684  0.60896673    -0.02300
Br2447     Br  0.78840221  0.85283155  0.68488885     0.00600
Br2448     Br  0.81029208  0.87236835  0.62791857    -0.03800
C2449       C  0.43768921  0.29635648  0.64887730    -0.11200
C2450       C  0.44296763  0.30875114  0.64640085     0.04300
C2451       C  0.44831640  0.31144732  0.63430507    -0.11800
C2452       C  0.44854414  0.30204475  0.62456389     0.19100
C2453       C  0.44422291  0.28947193  0.62727268    -0.08800
C2454       C  0.43890840  0.28670042  0.63934530    -0.01800
H2455       H  0.45183071  0.32110786  0.63229796     0.05600
C2456       C  0.45221060  0.30591305  0.61137311     0.21100
H2457       H  0.43508595  0.27709410  0.64099113     0.10800
C2458       C  0.46521905  0.30802526  0.60838454    -0.15100
C2459       C  0.46882699  0.31304176  0.59637639     0.03800
C2460       C  0.45924398  0.31585594  0.58700895    -0.10500
C2461       C  0.44625335  0.31316180  0.58993917    -0.00500
C2462       C  0.44268830  0.30850087  0.60205425    -0.05600
H2463       H  0.47256538  0.30613977  0.61559046     0.06800
H2464       H  0.43869278  0.31547145  0.58309236     0.10200
Br2465     Br  0.44480677  0.27599668  0.61453226    -0.05300
Br2466     Br  0.44300036  0.32260460  0.65878515    -0.02300
Br2467     Br  0.48693771  0.31617320  0.59380314     0.00600
Br2468     Br  0.42460407  0.30708392  0.60590660    -0.03800
C2469       C  0.28322594  0.40671975  0.73069133    -0.11200
C2470       C  0.27944462  0.39866742  0.74108126     0.04300
C2471       C  0.26702849  0.39977801  0.74630733    -0.11800
C2472       C  0.25821100  0.40884045  0.74153637     0.19100
C2473       C  0.26204072  0.41722403  0.73162047    -0.08800
C2474       C  0.27442352  0.41612535  0.72628327    -0.01800
H2475       H  0.26416393  0.39342361  0.75409543     0.05600
C2476       C  0.24503613  0.40918445  0.74702401     0.21100
H2477       H  0.27700650  0.42243253  0.71837060     0.10800
C2478       C  0.24226370  0.41777768  0.75710137    -0.15100
C2479       C  0.23044124  0.41720306  0.76365545     0.03800
C2480       C  0.22115940  0.40769758  0.76019523    -0.10500
C2481       C  0.22376908  0.39963212  0.74954739    -0.00500
C2482       C  0.23554874  0.40032041  0.74300075    -0.05600
H2483       H  0.24951635  0.42470676  0.76015005     0.06800
H2484       H  0.21680190  0.39240781  0.74653153     0.10200
Br2485     Br  0.25046600  0.42995261  0.72479333    -0.05300
Br2486     Br  0.29052071  0.38594378  0.74878831    -0.02300
Br2487     Br  0.22813366  0.42933620  0.77752897     0.00600
Br2488     Br  0.23845475  0.38867046  0.72886959    -0.03800
C2489       C  0.34507261  0.36758930  0.71322959    -0.11200
C2490       C  0.35700116  0.36933906  0.71969804     0.04300
C2491       C  0.36658238  0.35978918  0.71882400    -0.11800
C2492       C  0.36442866  0.34839464  0.71177702     0.19100
C2493       C  0.35226682  0.34627837  0.70607386    -0.08800
C2494       C  0.34280054  0.35585699  0.70673182    -0.01800
H2495       H  0.37590274  0.36142991  0.72330731     0.05600
C2496       C  0.37514460  0.33923492  0.70946368     0.21100
H2497       H  0.33368776  0.35422739  0.70183382     0.10800
C2498       C  0.37482431  0.32699637  0.71522996    -0.15100
C2499       C  0.38330120  0.31725730  0.71123146     0.03800
C2500       C  0.39232593  0.31975917  0.70134338    -0.10500
C2501       C  0.39341220  0.33234081  0.69644606    -0.00500
C2502       C  0.38482792  0.34202687  0.70033873    -0.05600
H2503       H  0.36752255  0.32482950  0.72238737     0.06800
H2504       H  0.40026763  0.33439949  0.68883030     0.10200
Br2505     Br  0.34835219  0.33077131  0.69659993    -0.05300
Br2506     Br  0.36127960  0.38482489  0.72901824    -0.02300
Br2507     Br  0.38193986  0.30065238  0.71938610     0.00600
Br2508     Br  0.38577966  0.35846503  0.69185591    -0.03800
C2509       C  0.47063935  0.48120116  0.65537808    -0.11200
C2510       C  0.47879298  0.47965239  0.66625794     0.04300
C2511       C  0.49068853  0.48611987  0.66679816    -0.11800
C2512       C  0.49462315  0.49428091  0.65678508     0.19100
C2513       C  0.48636267  0.49623067  0.64619428    -0.08800
C2514       C  0.47451240  0.48976908  0.64558022    -0.01800
H2515       H  0.49696840  0.48470465  0.67504340     0.05600
C2516       C  0.50756289  0.50032906  0.65729382     0.21100
H2517       H  0.46850775  0.49115387  0.63713273     0.10800
C2518       C  0.51840163  0.49299294  0.65384708    -0.15100
C2519       C  0.53070392  0.49862438  0.65331345     0.03800
C2520       C  0.53228538  0.51190524  0.65620792    -0.10500
C2521       C  0.52145508  0.51902410  0.66031633    -0.00500
C2522       C  0.50918656  0.51334710  0.66086266    -0.05600
H2523       H  0.51724108  0.48287724  0.65135085     0.06800
H2524       H  0.52241252  0.52919897  0.66263539     0.10200
Br2525     Br  0.49111794  0.50717153  0.63204505    -0.05300
Br2526     Br  0.47441638  0.46906764  0.68080766    -0.02300
Br2527     Br  0.54490748  0.48754551  0.64890793     0.00600
Br2528     Br  0.49484295  0.52374767  0.66628263    -0.03800
C2529       C  0.46600164  0.37440914  0.58119835    -0.11200
C2530       C  0.45608404  0.38379080  0.58070831     0.04300
C2531       C  0.45524509  0.39320033  0.59033174    -0.11800
C2532       C  0.46403353  0.39345127  0.60059824     0.19100
C2533       C  0.47386909  0.38410942  0.60120566    -0.08800
C2534       C  0.47490807  0.37477716  0.59143739    -0.01800
H2535       H  0.44765039  0.40038858  0.58983359     0.05600
C2536       C  0.46266626  0.40371081  0.61040886     0.21100
H2537       H  0.48242298  0.36752704  0.59208635     0.10800
C2538       C  0.45705181  0.40081075  0.62234621    -0.15100
C2539       C  0.45365848  0.41066952  0.63100128     0.03800
C2540       C  0.45595998  0.42376363  0.62769009    -0.10500
C2541       C  0.46233977  0.42645470  0.61600721    -0.00500
C2542       C  0.46554107  0.41661068  0.60736822    -0.05600
H2543       H  0.45476747  0.39086255  0.62468228     0.06800
H2544       H  0.46431618  0.43634418  0.61321568     0.10200
Br2545     Br  0.48591572  0.38368048  0.61525304    -0.05300
Br2546     Br  0.44353906  0.38462377  0.56705030    -0.02300
Br2547     Br  0.44527201  0.40539420  0.64665139     0.00600
Br2548     Br  0.47320004  0.42129214  0.59117910    -0.03800
C2549       C  0.40762501  0.44933750  0.67545611    -0.11200
C2550       C  0.39874850  0.45880230  0.67982067     0.04300
C2551       C  0.38731334  0.45498899  0.68597602    -0.11800
C2552       C  0.38452685  0.44189010  0.68801231     0.19100
C2553       C  0.39360717  0.43249812  0.68422033    -0.08800
C2554       C  0.40504716  0.43626520  0.67815008    -0.01800
H2555       H  0.38038855  0.46227012  0.68890905     0.05600
C2556       C  0.37162343  0.43807857  0.69285472     0.21100
H2557       H  0.41160651  0.42880278  0.67486104     0.10800
C2558       C  0.36087541  0.43958069  0.68475089    -0.15100
C2559       C  0.34882654  0.43441497  0.68809454     0.03800
C2560       C  0.34743283  0.42746942  0.69975141    -0.10500
C2561       C  0.35798925  0.42697416  0.70831294    -0.00500
C2562       C  0.36998176  0.43222295  0.70497091    -0.05600
H2563       H  0.36198435  0.44439055  0.67554303     0.06800
H2564       H  0.35715179  0.42188378  0.71739331     0.10200
Br2565     Br  0.39031872  0.41430605  0.68594535    -0.05300
Br2566     Br  0.40142155  0.47704692  0.67766143    -0.02300
Br2567     Br  0.33481196  0.43720758  0.67627251     0.00600
Br2568     Br  0.38393190  0.43080999  0.71708372    -0.03800
C2569       C  0.34031002  0.45909885  0.51054030    -0.11200
C2570       C  0.34942350  0.46289091  0.50105874     0.04300
C2571       C  0.34787414  0.47461891  0.49456398    -0.11800
C2572       C  0.33743295  0.48277623  0.49721593     0.19100
C2573       C  0.32821603  0.47900631  0.50639418    -0.08800
C2574       C  0.32969838  0.46728243  0.51297060    -0.01800
H2575       H  0.35498043  0.47749963  0.48745538     0.05600
C2576       C  0.33660714  0.49519836  0.49025625     0.21100
H2577       H  0.32259149  0.46468065  0.52017240     0.10800
C2578       C  0.33041014  0.49560370  0.47825123    -0.15100
C2579       C  0.33147545  0.50647381  0.47026790     0.03800
C2580       C  0.33907955  0.51717974  0.47425436    -0.10500
C2581       C  0.34455737  0.51696926  0.48670225    -0.00500
C2582       C  0.34335941  0.50614061  0.49466041    -0.05600
H2583       H  0.32516137  0.48718888  0.47484324     0.06800
H2584       H  0.35024348  0.52508276  0.49012523     0.10200
Br2585     Br  0.31364933  0.48970210  0.51039923    -0.05300
Br2586     Br  0.36448140  0.45300722  0.49654351    -0.02300
Br2587     Br  0.32296537  0.50545718  0.45382860     0.00600
Br2588     Br  0.35166589  0.50643553  0.51121654    -0.03800
C2589       C  0.36414102  0.44985155  0.56727159    -0.11200
C2590       C  0.36150370  0.44792278  0.58050514     0.04300
C2591       C  0.37007596  0.45280318  0.58979577    -0.11800
C2592       C  0.38112647  0.45976622  0.58613925     0.19100
C2593       C  0.38297577  0.46280850  0.57306328    -0.08800
C2594       C  0.37451479  0.45789758  0.56379216    -0.01800
H2595       H  0.36856852  0.45042647  0.59985688     0.05600
C2596       C  0.39160176  0.46176381  0.59564879     0.21100
H2597       H  0.37650266  0.45981681  0.55371579     0.10800
C2598       C  0.40325890  0.45513013  0.59375728    -0.15100
C2599       C  0.41301890  0.45551090  0.60302318     0.03800
C2600       C  0.41111746  0.46244612  0.61458653    -0.10500
C2601       C  0.39973216  0.46962950  0.61623799    -0.00500
C2602       C  0.38995739  0.46928936  0.60686767    -0.05600
H2603       H  0.40465831  0.44936557  0.58512438     0.06800
H2604       H  0.39819168  0.47503959  0.62506713     0.10200
Br2605     Br  0.39738884  0.47294966  0.56730716    -0.05300
Br2606     Br  0.34728331  0.43768283  0.58657077    -0.02300
Br2607     Br  0.42884459  0.44655650  0.59926024     0.00600
Br2608     Br  0.37453388  0.47910930  0.60978729    -0.03800
C2609       C  0.37892661  0.39897581  0.53102276    -0.11200
C2610       C  0.38098184  0.39166020  0.51964404     0.04300
C2611       C  0.39150921  0.38315975  0.51888975    -0.11800
C2612       C  0.39990918  0.38167864  0.52938414     0.19100
C2613       C  0.39761460  0.38860577  0.54083762    -0.08800
C2614       C  0.38726300  0.39716566  0.54156592    -0.01800
H2615       H  0.39313838  0.37767634  0.51012240     0.05600
C2616       C  0.41132606  0.37323853  0.52841971     0.21100
H2617       H  0.38581215  0.40252233  0.55044302     0.10800
C2618       C  0.42345851  0.37904013  0.52709683    -0.15100
C2619       C  0.43475535  0.37211665  0.52959886     0.03800
C2620       C  0.43394361  0.35901927  0.53356986    -0.10500
C2621       C  0.42177143  0.35293942  0.53356415    -0.00500
C2622       C  0.41051191  0.35995077  0.53103840    -0.05600
H2623       H  0.42409149  0.38927780  0.52497777     0.06800
H2624       H  0.42088585  0.34288733  0.53633246     0.10200
Br2625     Br  0.40831979  0.38657561  0.55583549    -0.05300
Br2626     Br  0.36945995  0.39220659  0.50513721    -0.02300
Br2627     Br  0.45060650  0.38177017  0.52847264     0.00600
Br2628     Br  0.39418496  0.35131923  0.53249721    -0.03800
C2629       C  0.37722442  0.28345711  0.65312693    -0.11200
C2630       C  0.37669763  0.27465511  0.64267379     0.04300
C2631       C  0.36619544  0.27500731  0.63409994    -0.11800
C2632       C  0.35612714  0.28389190  0.63588864     0.19100
C2633       C  0.35646954  0.29236827  0.64649604    -0.08800
C2634       C  0.36695260  0.29214294  0.65493105    -0.01800
H2635       H  0.36594459  0.26844891  0.62593527     0.05600
C2636       C  0.34532405  0.28452393  0.62662798     0.21100
H2637       H  0.36709998  0.29890977  0.66293158     0.10800
C2638       C  0.33344429  0.27901202  0.62999761    -0.15100
C2639       C  0.32231005  0.28154843  0.62277525     0.03800
C2640       C  0.32303320  0.28970195  0.61184812    -0.10500
C2641       C  0.33518855  0.29439593  0.60800214    -0.00500
C2642       C  0.34623981  0.29200139  0.61536562    -0.05600
H2643       H  0.33272086  0.27322004  0.63866369     0.06800
H2644       H  0.33600840  0.30068326  0.59970119     0.10200
Br2645     Br  0.34297334  0.30469908  0.64965930    -0.05300
Br2646     Br  0.39024182  0.26251674  0.63911602    -0.02300
Br2647     Br  0.30652318  0.27380335  0.62867354     0.00600
Br2648     Br  0.36209582  0.30018935  0.61037630    -0.03800
C2649       C  0.29605600  0.33623209  0.56370907    -0.11200
C2650       C  0.30854951  0.33852180  0.55862423     0.04300
C2651       C  0.31133091  0.35038194  0.55282588    -0.11800
C2652       C  0.30187366  0.35998061  0.55172741     0.19100
C2653       C  0.28911026  0.35718368  0.55535985    -0.08800
C2654       C  0.28629234  0.34541318  0.56135812    -0.01800
H2655       H  0.32111600  0.35236947  0.54969081     0.05600
C2656       C  0.30597348  0.37311149  0.54793538     0.21100
H2657       H  0.27655377  0.34376978  0.56479424     0.10800
C2658       C  0.31022400  0.37530089  0.53531750    -0.15100
C2659       C  0.31644871  0.38685137  0.53200437     0.03800
C2660       C  0.31863095  0.39647074  0.54155162    -0.10500
C2661       C  0.31365507  0.39445958  0.55401275    -0.00500
C2662       C  0.30744793  0.38292062  0.55725977    -0.05600
H2663       H  0.30918273  0.36773460  0.52813714     0.06800
H2664       H  0.31514864  0.40163350  0.56150265     0.10200
Br2665     Br  0.27541180  0.36936967  0.55276304    -0.05300
Br2666     Br  0.32253471  0.32634854  0.55962760    -0.02300
Br2667     Br  0.32246961  0.38813453  0.51452985     0.00600
Br2668     Br  0.30232154  0.38054473  0.57490117    -0.03800
C2669       C  0.28578518  0.33676683  0.62474582    -0.11200
C2670       C  0.27659675  0.34684875  0.62526238     0.04300
C2671       C  0.27788904  0.35663002  0.63460006    -0.11800
C2672       C  0.28820589  0.35644190  0.64339032     0.19100
C2673       C  0.29688052  0.34600738  0.64330566    -0.08800
C2674       C  0.29566125  0.33636868  0.63402210    -0.01800
H2675       H  0.27109444  0.36458630  0.63475562     0.05600
C2676       C  0.29021120  0.36716524  0.65254638     0.21100
H2677       H  0.30266923  0.32859149  0.63392978     0.10800
C2678       C  0.28293875  0.36751048  0.66390381    -0.15100
C2679       C  0.28671940  0.37537640  0.67423270     0.03800
C2680       C  0.29796171  0.38309092  0.67319451    -0.10500
C2681       C  0.30447854  0.38361393  0.66132968    -0.00500
C2682       C  0.30071752  0.37567815  0.65105887    -0.05600
H2683       H  0.27477011  0.36105337  0.66503031     0.06800
H2684       H  0.31306416  0.38952009  0.66030627     0.10200
Br2685     Br  0.31075385  0.34459360  0.65555544    -0.05300
Br2686     Br  0.26280057  0.34835465  0.61298213    -0.02300
Br2687     Br  0.27631464  0.37481461  0.68955479     0.00600
Br2688     Br  0.31090378  0.37584208  0.63558462    -0.03800
C2689       C  0.53878706  0.47559328  0.32624542    -0.11200
C2690       C  0.53097614  0.47463783  0.31505030     0.04300
C2691       C  0.51946340  0.48175039  0.31420807    -0.11800
C2692       C  0.51553189  0.48982394  0.32435078     0.19100
C2693       C  0.52352200  0.49116249  0.33525401    -0.08800
C2694       C  0.53504896  0.48419132  0.33608014    -0.01800
H2695       H  0.51338935  0.48073868  0.30574548     0.05600
C2696       C  0.50264674  0.49601531  0.32399698     0.21100
H2697       H  0.54081750  0.48508601  0.34476446     0.10800
C2698       C  0.49248766  0.49019970  0.33074413    -0.15100
C2699       C  0.48051245  0.49633349  0.33195850     0.03800
C2700       C  0.47851781  0.50864547  0.32637955    -0.10500
C2701       C  0.48853842  0.51411547  0.31898797    -0.00500
C2702       C  0.50054183  0.50791441  0.31781329    -0.05600
H2703       H  0.49399996  0.48094044  0.33537161     0.06800
H2704       H  0.48726042  0.52352149  0.31460254     0.10200
Br2705     Br  0.51879124  0.50202394  0.34951752    -0.05300
Br2706     Br  0.53544802  0.46397424  0.30054006    -0.02300
Br2707     Br  0.46734279  0.48720028  0.34127228     0.00600
Br2708     Br  0.51405211  0.51630855  0.30834435    -0.03800
C2709       C  0.66235804  0.41952864  0.29032657    -0.11200
C2710       C  0.65940731  0.42532328  0.30236787     0.04300
C2711       C  0.64699983  0.43018840  0.30460811    -0.11800
C2712       C  0.63737261  0.42929392  0.29514682     0.19100
C2713       C  0.64037301  0.42409455  0.28301002    -0.08800
C2714       C  0.65279407  0.41939418  0.28063431    -0.01800
H2715       H  0.64467982  0.43422195  0.31398386     0.05600
C2716       C  0.62399462  0.43264073  0.29862086     0.21100
H2717       H  0.65473357  0.41499815  0.27134152     0.10800
C2718       C  0.61983186  0.44547955  0.29781861    -0.15100
C2719       C  0.60766432  0.44909722  0.30248926     0.03800
C2720       C  0.59950441  0.43970587  0.30820179    -0.10500
C2721       C  0.60346600  0.42670127  0.30812516    -0.00500
C2722       C  0.61561534  0.42316344  0.30350814    -0.05600
H2723       H  0.62621866  0.45276464  0.29386627     0.06800
H2724       H  0.59745503  0.41930433  0.31243125     0.10200
Br2725     Br  0.62753080  0.42246427  0.26974493    -0.05300
Br2726     Br  0.67150082  0.42662606  0.31638459    -0.02300
Br2727     Br  0.60304054  0.46699780  0.30086613     0.00600
Br2728     Br  0.62077133  0.40540444  0.30495842    -0.03800
C2729       C  0.72565475  0.32861126  0.36269545    -0.11200
C2730       C  0.73579843  0.33770713  0.36149933     0.04300
C2731       C  0.73534221  0.34700694  0.35167211    -0.11800
C2732       C  0.72492957  0.34737900  0.34302866     0.19100
C2733       C  0.71516811  0.33798099  0.34383441    -0.08800
C2734       C  0.71559048  0.32873910  0.35357069    -0.01800
H2735       H  0.74287618  0.35425628  0.35105696     0.05600
C2736       C  0.72370010  0.35805218  0.33372954     0.21100
H2737       H  0.70777283  0.32179369  0.35418820     0.10800
C2738       C  0.72881646  0.35661586  0.32132736    -0.15100
C2739       C  0.72551972  0.36526958  0.31151537     0.03800
C2740       C  0.71683510  0.37552894  0.31409792    -0.10500
C2741       C  0.71264522  0.37752430  0.32683905    -0.00500
C2742       C  0.71595552  0.36883786  0.33660080    -0.05600
H2743       H  0.73489406  0.34837985  0.31912574     0.06800
H2744       H  0.70604476  0.38533410  0.32906967     0.10200
Br2745     Br  0.70072126  0.33777582  0.33218626    -0.05300
Br2746     Br  0.74989765  0.33872446  0.37348381    -0.02300
Br2747     Br  0.73301068  0.36226157  0.29481916     0.00600
Br2748     Br  0.70877237  0.37137369  0.35347838    -0.03800
C2749       C  0.67009724  0.45908120  0.47529486    -0.11200
C2750       C  0.67699502  0.46967584  0.47001971     0.04300
C2751       C  0.67704484  0.48165059  0.47644336    -0.11800
C2752       C  0.67055003  0.48329159  0.48819846     0.19100
C2753       C  0.66452847  0.47252040  0.49390568    -0.08800
C2754       C  0.66427717  0.46063166  0.48744978    -0.01800
H2755       H  0.68176947  0.48986010  0.47200247     0.05600
C2756       C  0.66904428  0.49643175  0.49383232     0.21100
H2757       H  0.65916767  0.45263079  0.49184316     0.10800
C2758       C  0.65671908  0.50202364  0.49399186    -0.15100
C2759       C  0.65447492  0.51390935  0.50007335     0.03800
C2760       C  0.66474048  0.52045961  0.50637244    -0.10500
C2761       C  0.67722510  0.51509927  0.50563957    -0.00500
C2762       C  0.67944729  0.50328316  0.49932512    -0.05600
H2763       H  0.64869241  0.49692387  0.48957802     0.06800
H2764       H  0.68528140  0.51999427  0.51021217     0.10200
Br2765     Br  0.65633752  0.47361643  0.51047229    -0.05300
Br2766     Br  0.68577671  0.46892729  0.45372665    -0.02300
Br2767     Br  0.63694227  0.51999315  0.49996980     0.00600
Br2768     Br  0.69671006  0.49659706  0.49896779    -0.03800
C2769       C  0.64410982  0.44141678  0.41648177    -0.11200
C2770       C  0.63787487  0.45361228  0.41646274     0.04300
C2771       C  0.63024199  0.45722819  0.40591430    -0.11800
C2772       C  0.62856450  0.44892324  0.39533949     0.19100
C2773       C  0.63545454  0.43719782  0.39493923    -0.08800
C2774       C  0.64309256  0.43354160  0.40544508    -0.01800
H2775       H  0.62507497  0.46632933  0.40621986     0.05600
C2776       C  0.61870779  0.45199950  0.38543831     0.21100
H2777       H  0.64787771  0.42423585  0.40515255     0.10800
C2778       C  0.62248624  0.45425411  0.37266484    -0.15100
C2779       C  0.61329733  0.45556311  0.36281796     0.03800
C2780       C  0.59993771  0.45472589  0.36574945    -0.10500
C2781       C  0.59625005  0.45323752  0.37871419    -0.00500
C2782       C  0.60545455  0.45184656  0.38848558    -0.05600
H2783       H  0.63267051  0.45458517  0.37028502     0.06800
H2784       H  0.58612558  0.45256119  0.38125261     0.10200
Br2785     Br  0.63399091  0.42534595  0.38072126    -0.05300
Br2786     Br  0.63826350  0.46541382  0.43081372    -0.02300
Br2787     Br  0.61988529  0.45819969  0.34569269     0.00600
Br2788     Br  0.59935159  0.44877765  0.40570036    -0.03800
C2789       C  0.71140725  0.33334875  0.42311629    -0.11200
C2790       C  0.69874350  0.33525668  0.42797873     0.04300
C2791       C  0.69528622  0.34721098  0.43329810    -0.11800
C2792       C  0.70414364  0.35742825  0.43396941     0.19100
C2793       C  0.71697844  0.35531173  0.43008662    -0.08800
C2794       C  0.72051008  0.34338240  0.42470354    -0.01800
H2795       H  0.68543251  0.34872105  0.43647949     0.05600
C2796       C  0.69945268  0.37035413  0.43798996     0.21100
H2797       H  0.73031074  0.34217450  0.42126506     0.10800
C2798       C  0.69550844  0.37234651  0.45076392    -0.15100
C2799       C  0.68948227  0.38388830  0.45452843     0.03800
C2800       C  0.68727738  0.39378299  0.44532210    -0.10500
C2801       C  0.69172014  0.39185506  0.43263240    -0.00500
C2802       C  0.69759815  0.38027037  0.42890635    -0.05600
H2803       H  0.69677244  0.36469029  0.45776631     0.06800
H2804       H  0.69007998  0.39915704  0.42534362     0.10200
Br2805     Br  0.72986774  0.36856975  0.43167561    -0.05300
Br2806     Br  0.68532877  0.32240541  0.42725324    -0.02300
Br2807     Br  0.68394916  0.38488963  0.47219546     0.00600
Br2808     Br  0.70178850  0.37801963  0.41100024    -0.03800
C2809       C  0.49081752  0.33021930  0.52334088    -0.11200
C2810       C  0.50337848  0.33512324  0.52117663     0.04300
C2811       C  0.50921670  0.33349574  0.50908040    -0.11800
C2812       C  0.50286441  0.32681230  0.49912302     0.19100
C2813       C  0.49087011  0.32097158  0.50162337    -0.08800
C2814       C  0.48491459  0.32277426  0.51358957    -0.01800
H2815       H  0.51866286  0.33766200  0.50735182     0.05600
C2816       C  0.50866841  0.32649197  0.48607994     0.21100
H2817       H  0.47539916  0.31868071  0.51508090     0.10800
C2818       C  0.51940931  0.31863154  0.48371244    -0.15100
C2819       C  0.52570976  0.31883581  0.47174213     0.03800
C2820       C  0.52128520  0.32718003  0.46183259    -0.10500
C2821       C  0.51018061  0.33467947  0.46418770    -0.00500
C2822       C  0.50393751  0.33442926  0.47614623    -0.05600
H2823       H  0.52306906  0.31248161  0.49132958     0.06800
H2824       H  0.50656255  0.34117555  0.45684858     0.10200
Br2825     Br  0.48225506  0.31053751  0.48892827    -0.05300
Br2826     Br  0.51324675  0.34366035  0.53439102    -0.02300
Br2827     Br  0.54062655  0.30794304  0.47010390     0.00600
Br2828     Br  0.48947438  0.34574617  0.47874007    -0.03800
C2829       C  0.57619157  0.35691067  0.45060186    -0.11200
C2830       C  0.57378313  0.36531100  0.46113047     0.04300
C2831       C  0.58340700  0.37392657  0.46528301    -0.11800
C2832       C  0.59548239  0.37418257  0.45920049     0.19100
C2833       C  0.59820789  0.36514331  0.44941820    -0.08800
C2834       C  0.58862607  0.35658598  0.44522520    -0.01800
H2835       H  0.58131423  0.38075880  0.47293904     0.05600
C2836       C  0.60462419  0.38484730  0.46178474     0.21100
H2837       H  0.59070261  0.35020203  0.43718875     0.10800
C2838       C  0.61508293  0.38296020  0.47015285    -0.15100
C2839       C  0.62537202  0.39180034  0.47054214     0.03800
C2840       C  0.62527375  0.40274313  0.46232133    -0.10500
C2841       C  0.61421851  0.40501364  0.45473533    -0.00500
C2842       C  0.60401118  0.39619008  0.45439514    -0.05600
H2843       H  0.61554575  0.37425059  0.47591773     0.06800
H2844       H  0.61376646  0.41333586  0.44843199     0.10200
Br2845     Br  0.61459200  0.36493033  0.44077070    -0.05300
Br2846     Br  0.55764149  0.36543230  0.47024831    -0.02300
Br2847     Br  0.63932397  0.38790320  0.48211709     0.00600
Br2848     Br  0.58993160  0.39940701  0.44276042    -0.03800
C2849       C  0.53863752  0.36996484  0.40312494    -0.11200
C2850       C  0.54609116  0.38131184  0.40458853     0.04300
C2851       C  0.54660416  0.39029300  0.39463438    -0.11800
C2852       C  0.53951608  0.38846177  0.38326756     0.19100
C2853       C  0.53132861  0.37765128  0.38210353    -0.08800
C2854       C  0.53094032  0.36845052  0.39202469    -0.01800
H2855       H  0.55274694  0.39872540  0.39569064     0.05600
C2856       C  0.54146152  0.39784448  0.37274485     0.21100
H2857       H  0.52505802  0.35986306  0.39081307     0.10800
C2858       C  0.54890658  0.39425302  0.36201000    -0.15100
C2859       C  0.55372756  0.40361058  0.35351058     0.03800
C2860       C  0.55104410  0.41681852  0.35576246    -0.10500
C2861       C  0.54290096  0.42021802  0.36607013    -0.00500
C2862       C  0.53813850  0.41089019  0.37450813    -0.05600
H2863       H  0.55169200  0.38423538  0.36073339     0.06800
H2864       H  0.54058471  0.43027501  0.36787750     0.10200
Br2865     Br  0.52061839  0.37516885  0.36719729    -0.05300
Br2866     Br  0.55564077  0.38532072  0.42002119    -0.02300
Br2867     Br  0.56509653  0.39782850  0.34006757     0.00600
Br2868     Br  0.52771644  0.41647194  0.38877877    -0.03800
C2869       C  0.62588018  0.31110593  0.28557463    -0.11200
C2870       C  0.62365435  0.32430032  0.28855889     0.04300
C2871       C  0.63253607  0.33369814  0.28459883    -0.11800
C2872       C  0.64368785  0.33030041  0.27773985     0.19100
C2873       C  0.64564129  0.31731743  0.27424522    -0.08800
C2874       C  0.63674818  0.30790402  0.27804963    -0.01800
H2875       H  0.63105877  0.34367743  0.28744720     0.05600
C2876       C  0.65393218  0.34011117  0.27604548     0.21100
H2877       H  0.63869140  0.29792445  0.27553222     0.10800
C2878       C  0.66514259  0.33903454  0.28356013    -0.15100
C2879       C  0.67423251  0.34900114  0.28393648     0.03800
C2880       C  0.67227825  0.36023083  0.27648707    -0.10500
C2881       C  0.66146325  0.36097408  0.26835049    -0.00500
C2882       C  0.65217985  0.35111671  0.26826538    -0.05600
H2883       H  0.66653274  0.33063459  0.28963166     0.06800
H2884       H  0.65980626  0.36959419  0.26267033     0.10200
Br2885     Br  0.66057620  0.31191227  0.26471264    -0.05300
Br2886     Br  0.60930095  0.33033786  0.29863420    -0.02300
Br2887     Br  0.68896542  0.34681439  0.29502750     0.00600
Br2888     Br  0.63699983  0.35339133  0.25791061    -0.03800
C2889       C  0.58011264  0.28848982  0.33656568    -0.11200
C2890       C  0.57229273  0.29970659  0.33736109     0.04300
C2891       C  0.56711752  0.30353637  0.34928186    -0.11800
C2892       C  0.56973570  0.29657594  0.36058040     0.19100
C2893       C  0.57707752  0.28516724  0.35974139    -0.08800
C2894       C  0.58207229  0.28118658  0.34784682    -0.01800
H2895       H  0.56138639  0.31228012  0.34982713     0.05600
C2896       C  0.56524986  0.30172592  0.37318535     0.21100
H2897       H  0.58800515  0.27257173  0.34758042     0.10800
C2898       C  0.55201471  0.30187850  0.37604470    -0.15100
C2899       C  0.54743168  0.30724231  0.38762544     0.03800
C2900       C  0.55623690  0.31251241  0.39672126    -0.10500
C2901       C  0.56951396  0.31214010  0.39381947    -0.00500
C2902       C  0.57401170  0.30702849  0.38215112    -0.05600
H2903       H  0.54519238  0.29792472  0.36914495     0.06800
H2904       H  0.57646411  0.31638706  0.40040679     0.10200
Br2905     Br  0.58090267  0.27487215  0.37463919    -0.05300
Br2906     Br  0.56848540  0.31051643  0.32280574    -0.02300
Br2907     Br  0.52906673  0.30702695  0.39020552     0.00600
Br2908     Br  0.59213321  0.30845335  0.37846950    -0.03800
C2909       C  0.63982326  0.27228653  0.32818425    -0.11200
C2910       C  0.65054085  0.28068851  0.32695536     0.04300
C2911       C  0.66003697  0.28101335  0.33652617    -0.11800
C2912       C  0.65913298  0.27312765  0.34744019     0.19100
C2913       C  0.64890165  0.26421662  0.34838599    -0.08800
C2914       C  0.63938800  0.26374132  0.33871393    -0.01800
H2915       H  0.66798996  0.28777873  0.33565680     0.05600
C2916       C  0.66863009  0.27505892  0.35794844     0.21100
H2917       H  0.63126376  0.25723175  0.33982449     0.10800
C2918       C  0.66512619  0.28236811  0.36881021    -0.15100
C2919       C  0.67441776  0.28638429  0.37783958     0.03800
C2920       C  0.68759467  0.28322399  0.37588394    -0.10500
C2921       C  0.69081994  0.27513471  0.36542285    -0.00500
C2922       C  0.68150651  0.27108917  0.35652740    -0.05600
H2923       H  0.65517955  0.28539737  0.36999044     0.06800
H2924       H  0.70075910  0.27230558  0.36380932     0.10200
Br2925     Br  0.64741914  0.25293344  0.36295194    -0.05300
Br2926     Br  0.65275833  0.29213445  0.31252502    -0.02300
Br2927     Br  0.66834210  0.29655762  0.39213190     0.00600
Br2928     Br  0.68687804  0.26048583  0.34231697    -0.03800
C2929       C  0.52158312  0.82848112  0.96345084    -0.11200
C2930       C  0.52445282  0.81749273  0.97105685     0.04300
C2931       C  0.51908591  0.81632620  0.98340268    -0.11800
C2932       C  0.51070905  0.82580774  0.98818123     0.19100
C2933       C  0.50722626  0.83629202  0.98032938    -0.08800
C2934       C  0.51260283  0.83753243  0.96808628    -0.01800
H2935       H  0.52156198  0.80809523  0.98935161     0.05600
C2936       C  0.50595849  0.82512263  0.00153267     0.21100
H2937       H  0.51018414  0.84598879  0.96243796     0.10800
C2938       C  0.51330259  0.83081994  0.01137688    -0.15100
C2939       C  0.50799258  0.83291102  0.02360883     0.03800
C2940       C  0.49500999  0.82938706  0.02603388    -0.10500
C2941       C  0.48810584  0.82268129  0.01639887    -0.00500
C2942       C  0.49349313  0.82054613  0.00422511    -0.05600
H2943       H  0.52300536  0.83418871  0.00935480     0.06800
H2944       H  0.47820664  0.81972516  0.01805491     0.10200
Br2945     Br  0.49568140  0.84956192  0.98621775    -0.05300
Br2946     Br  0.53533036  0.80364684  0.96518103    -0.02300
Br2947     Br  0.51899541  0.84069186  0.03639133     0.00600
Br2948     Br  0.48324520  0.81216731  0.99122418    -0.03800
C2949       C  0.59104527  0.75543735  0.77782663    -0.11200
C2950       C  0.59899377  0.74478577  0.77450179     0.04300
C2951       C  0.59793110  0.73914888  0.76226060    -0.11800
C2952       C  0.58928453  0.74400945  0.75306326     0.19100
C2953       C  0.58084685  0.75406309  0.75657182    -0.08800
C2954       C  0.58172871  0.75961980  0.76885679    -0.01800
H2955       H  0.60432895  0.73127488  0.75966884     0.05600
C2956       C  0.58984311  0.73903357  0.73966409     0.21100
H2957       H  0.57547957  0.76769659  0.77114578     0.10800
C2958       C  0.57920988  0.73244731  0.73442814    -0.15100
C2959       C  0.57960897  0.72742243  0.72187266     0.03800
C2960       C  0.59096348  0.72869975  0.71440070    -0.10500
C2961       C  0.60143052  0.73568538  0.71956114    -0.00500
C2962       C  0.60094407  0.74083862  0.73202973    -0.05600
H2963       H  0.57055799  0.73118694  0.74016192     0.06800
H2964       H  0.61023194  0.73682454  0.71403540     0.10200
Br2965     Br  0.56875146  0.76133053  0.74457323    -0.05300
Br2966     Br  0.61225401  0.73794279  0.78553706    -0.02300
Br2967     Br  0.56415926  0.71938460  0.71544212     0.00600
Br2968     Br  0.61566537  0.75040362  0.73812941    -0.03800
C2969       C  0.57231254  0.79020343  0.83965920    -0.11200
C2970       C  0.56869434  0.80311016  0.84251630     0.04300
C2971       C  0.56284754  0.80598270  0.85432139    -0.11800
C2972       C  0.56049154  0.79628879  0.86340637     0.19100
C2973       C  0.56324296  0.78337641  0.86032475    -0.08800
C2974       C  0.56905154  0.78040294  0.84851157    -0.01800
H2975       H  0.56066045  0.81595521  0.85669430     0.05600
C2976       C  0.55668040  0.80018967  0.87651935     0.21100
H2977       H  0.57161536  0.77043730  0.84657205     0.10800
C2978       C  0.54368253  0.80260253  0.87933035    -0.15100
C2979       C  0.54014087  0.80831920  0.89106921     0.03800
C2980       C  0.54982866  0.81211850  0.89997014    -0.10500
C2981       C  0.56272727  0.80874094  0.89743253    -0.00500
C2982       C  0.56617334  0.80278817  0.88586624    -0.05600
H2983       H  0.53631814  0.80031258  0.87224569     0.06800
H2984       H  0.57032017  0.81130961  0.90417000     0.10200
Br2985     Br  0.55995991  0.76969818  0.87234209    -0.05300
Br2986     Br  0.57186179  0.81750740  0.83126141    -0.02300
Br2987     Br  0.52199921  0.81046500  0.89427186     0.00600
Br2988     Br  0.58409809  0.79910336  0.88291442    -0.03800
C2989       C  0.62775229  0.90296686  0.96153426    -0.11200
C2990       C  0.62956777  0.89033915  0.96634936     0.04300
C2991       C  0.61974789  0.88110692  0.96485029    -0.11800
C2992       C  0.60815729  0.88429322  0.95859358     0.19100
C2993       C  0.60621887  0.89701200  0.95421455    -0.08800
C2994       C  0.61595285  0.90618832  0.95572733    -0.01800
H2995       H  0.62128229  0.87132918  0.96824153     0.05600
C2996       C  0.59818178  0.87434048  0.95633686     0.21100
H2997       H  0.61446594  0.91581121  0.95188907     0.10800
C2998       C  0.58633706  0.87547577  0.96273522    -0.15100
C2999       C  0.57578856  0.86781640  0.95919411     0.03800
C3000       C  0.57706058  0.85868838  0.94909351    -0.10500
C3001       C  0.58925556  0.85689338  0.94339933    -0.00500
C3002       C  0.59976018  0.86467675  0.94688402    -0.05600
H3003       H  0.58514048  0.88278839  0.97014597     0.06800
H3004       H  0.59046924  0.84992432  0.93567404     0.10200
Br3005     Br  0.59083187  0.90214716  0.94522226    -0.05300
Br3006     Br  0.64559328  0.88479389  0.97384297    -0.02300
Br3007     Br  0.56000078  0.87051239  0.96852012     0.00600
Br3008     Br  0.61569025  0.86249673  0.93767593    -0.03800
C3009       C  0.68331640  0.78436670  0.88081930    -0.11200
C3010       C  0.67086032  0.78969431  0.88247549     0.04300
C3011       C  0.66066557  0.78547591  0.87465745    -0.11800
C3012       C  0.66265491  0.77613087  0.86504934     0.19100
C3013       C  0.67488265  0.77034048  0.86382790    -0.08800
C3014       C  0.68507744  0.77444506  0.87170128    -0.01800
H3015       H  0.65135072  0.79018059  0.87545019     0.05600
C3016       C  0.65263348  0.77438659  0.85503654     0.21100
H3017       H  0.69456130  0.77025350  0.87030013     0.10800
C3018       C  0.65498847  0.77952074  0.84276534    -0.15100
C3019       C  0.64536603  0.77960460  0.83333560     0.03800
C3020       C  0.63305195  0.77446139  0.83612700    -0.10500
C3021       C  0.63085429  0.76881226  0.84824272    -0.00500
C3022       C  0.64050924  0.76885491  0.85773033    -0.05600
H3023       H  0.66429251  0.78382224  0.84062831     0.06800
H3024       H  0.62143773  0.76486265  0.85053454     0.10200
Br3025     Br  0.67822742  0.75730792  0.85105469    -0.05300
Br3026     Br  0.66747041  0.80405243  0.89377353    -0.02300
Br3027     Br  0.64974848  0.78673931  0.81680480     0.00600
Br3028     Br  0.63669318  0.76148692  0.87424745    -0.03800
C3029       C  0.70759656  0.83567456  0.92415710    -0.11200
C3030       C  0.69517323  0.83723084  0.92972150     0.04300
C3031       C  0.69170752  0.84910732  0.93525414    -0.11800
C3032       C  0.70036399  0.85951991  0.93544505     0.19100
C3033       C  0.71297933  0.85773843  0.93081744    -0.08800
C3034       C  0.71650532  0.84592738  0.92524748    -0.01800
H3035       H  0.68200807  0.85040426  0.93895385     0.05600
C3036       C  0.69567674  0.87246324  0.93930999     0.21100
H3037       H  0.72612290  0.84499725  0.92125396     0.10800
C3038       C  0.69450930  0.87564390  0.95239075    -0.15100
C3039       C  0.68946936  0.88763300  0.95624214     0.03800
C3040       C  0.68536070  0.89668921  0.94682522    -0.10500
C3041       C  0.68697418  0.89350868  0.93370966    -0.00500
C3042       C  0.69198823  0.88153969  0.92993831    -0.05600
H3043       H  0.69741683  0.86870067  0.95964033     0.06800
H3044       H  0.68385738  0.90015011  0.92627319     0.10200
Br3045     Br  0.72547549  0.87143367  0.93137811    -0.05300
Br3046     Br  0.68215114  0.82396137  0.92972801    -0.02300
Br3047     Br  0.68847720  0.89073042  0.97449603     0.00600
Br3048     Br  0.69299811  0.87769681  0.91183259    -0.03800
C3049       C  0.54731099  0.92170506  0.85912880    -0.11200
C3050       C  0.53883282  0.92484700  0.86938710     0.04300
C3051       C  0.53461694  0.91516409  0.87779078    -0.11800
C3052       C  0.53861877  0.90235169  0.87612324     0.19100
C3053       C  0.54605349  0.89901065  0.86527133    -0.08800
C3054       C  0.55025397  0.90864292  0.85681942    -0.01800
H3055       H  0.52880582  0.91775308  0.88609166     0.05600
C3056       C  0.53708285  0.89315016  0.88684315     0.21100
H3057       H  0.55663737  0.90598240  0.84897839     0.10800
C3058       C  0.52751111  0.88354452  0.88639412    -0.15100
C3059       C  0.52720896  0.87369875  0.89568156     0.03800
C3060       C  0.53667611  0.87343835  0.90550109    -0.10500
C3061       C  0.54578802  0.88346668  0.90622316    -0.00500
C3062       C  0.54605300  0.89324758  0.89703336    -0.05600
H3063       H  0.52062675  0.88340895  0.87851569     0.06800
H3064       H  0.55308919  0.88343745  0.91372727     0.10200
Br3065     Br  0.55191342  0.88163479  0.86246507    -0.05300
Br3066     Br  0.53291001  0.94212334  0.87278915    -0.02300
Br3067     Br  0.51457294  0.86025376  0.89366913     0.00600
Br3068     Br  0.55953631  0.90596928  0.89822964    -0.03800
C3069       C  0.59799555  0.95706531  0.87181074    -0.11200
C3070       C  0.60905498  0.96507774  0.87096124     0.04300
C3071       C  0.61821877  0.96507653  0.88097019    -0.11800
C3072       C  0.61657834  0.95715439  0.89181238     0.19100
C3073       C  0.60550667  0.94932047  0.89271748    -0.08800
C3074       C  0.59637190  0.94934146  0.88281961    -0.01800
H3075       H  0.62680608  0.97101205  0.88015155     0.05600
C3076       C  0.62664168  0.95643136  0.90192023     0.21100
H3077       H  0.58802826  0.94306574  0.88365697     0.10800
C3078       C  0.62403827  0.96159955  0.91414862    -0.15100
C3079       C  0.63162525  0.95829813  0.92482930     0.03800
C3080       C  0.64215620  0.94968332  0.92330227    -0.10500
C3081       C  0.64541631  0.94555409  0.91077884    -0.00500
C3082       C  0.63772806  0.94878933  0.90016277    -0.05600
H3083       H  0.61556748  0.96758949  0.91552981     0.06800
H3084       H  0.65347902  0.93905265  0.90930568     0.10200
Br3085     Br  0.60279373  0.93782460  0.90699262    -0.05300
Br3086     Br  0.61279914  0.97534665  0.85602358    -0.02300
Br3087     Br  0.62659852  0.96555815  0.94115042     0.00600
Br3088     Br  0.64196965  0.94141754  0.88370400    -0.03800
C3089       C  0.72431356  0.89991529  0.75150296    -0.11200
C3090       C  0.73271092  0.91059660  0.75337233     0.04300
C3091       C  0.74436403  0.91127190  0.74655179    -0.11800
C3092       C  0.74796012  0.90147133  0.73793244     0.19100
C3093       C  0.73953909  0.89100109  0.73581596    -0.08800
C3094       C  0.72778862  0.89040065  0.74240380    -0.01800
H3095       H  0.75087377  0.91930549  0.74828041     0.05600
C3096       C  0.76103764  0.90166316  0.73223264     0.21100
H3097       H  0.72167732  0.88202678  0.74087866     0.10800
C3098       C  0.77166907  0.89904751  0.74019559    -0.15100
C3099       C  0.78412315  0.89804058  0.73506462     0.03800
C3100       C  0.78607982  0.89964966  0.72168987    -0.10500
C3101       C  0.77548248  0.90297404  0.71386119    -0.00500
C3102       C  0.76303997  0.90398362  0.71902268    -0.05600
H3103       H  0.77022137  0.89752075  0.75043159     0.06800
H3104       H  0.77678032  0.90432876  0.70358324     0.10200
Br3105     Br  0.74420191  0.87665017  0.72499596    -0.05300
Br3106     Br  0.72936377  0.92438630  0.76535609    -0.02300
Br3107     Br  0.79804370  0.89485676  0.74687506     0.00600
Br3108     Br  0.74906568  0.90841020  0.70768944    -0.03800
C3109       C  0.71333313  0.87118401  0.80986834    -0.11200
C3110       C  0.71932810  0.85891128  0.80852595     0.04300
C3111       C  0.72248584  0.85177273  0.81951435    -0.11800
C3112       C  0.71961273  0.85646029  0.83184122     0.19100
C3113       C  0.71430741  0.86886268  0.83327056    -0.08800
C3114       C  0.71139043  0.87618620  0.82235543    -0.01800
H3115       H  0.72645453  0.84213926  0.81842319     0.05600
C3116       C  0.72006919  0.84746934  0.84279525     0.21100
H3117       H  0.70680946  0.88550314  0.82369190     0.10800
C3118       C  0.73106096  0.84676003  0.85064952    -0.15100
C3119       C  0.73141933  0.83835510  0.86124686     0.03800
C3120       C  0.72056760  0.83048254  0.86402927    -0.10500
C3121       C  0.70966317  0.83125034  0.85594101    -0.00500
C3122       C  0.70935838  0.83960174  0.84544605    -0.05600
H3123       H  0.73932024  0.85285489  0.84859553     0.06800
H3124       H  0.70122237  0.82533640  0.85776740     0.10200
Br3125     Br  0.70964614  0.87558289  0.84989105    -0.05300
Br3126     Br  0.72268151  0.85062063  0.79224251    -0.02300
Br3127     Br  0.74680053  0.83857186  0.87159734     0.00600
Br3128     Br  0.69399385  0.84007042  0.83503523    -0.03800
C3129       C  0.66175355  0.91487672  0.79037207    -0.11200
C3130       C  0.65932089  0.91687645  0.80368245     0.04300
C3131       C  0.64769083  0.92254041  0.80765124    -0.11800
C3132       C  0.63831283  0.92625740  0.79864824     0.19100
C3133       C  0.64083421  0.92469697  0.78542386    -0.08800
C3134       C  0.65243039  0.91901729  0.78138318    -0.01800
H3135       H  0.64575381  0.92366748  0.81786478     0.05600
C3136       C  0.62566146  0.93099249  0.80331368     0.21100
H3137       H  0.65402891  0.91758414  0.77115246     0.10800
C3138       C  0.62380535  0.94422845  0.80542259    -0.15100
C3139       C  0.61222569  0.94889620  0.81066802     0.03800
C3140       C  0.60221381  0.94014343  0.81405949    -0.10500
C3141       C  0.60401888  0.92690565  0.81139211    -0.00500
C3142       C  0.61558373  0.92232962  0.80610197    -0.05600
H3143       H  0.63150515  0.95095058  0.80315572     0.06800
H3144       H  0.59657622  0.91996379  0.81382400     0.10200
Br3145     Br  0.62845620  0.92978080  0.77263582    -0.05300
Br3146     Br  0.67076698  0.91112282  0.81709540    -0.02300
Br3147     Br  0.61109221  0.96729356  0.81302459     0.00600
Br3148     Br  0.61740482  0.90409139  0.80319514    -0.03800
C3149       C  0.66723544  0.85707158  0.77284109    -0.11200
C3150       C  0.65528820  0.85800335  0.76624932     0.04300
C3151       C  0.64584173  0.84849552  0.76808924    -0.11800
C3152       C  0.64803673  0.83813644  0.77645991     0.19100
C3153       C  0.66010229  0.83681897  0.78250549    -0.08800
C3154       C  0.66960820  0.84615391  0.78056363    -0.01800
H3155       H  0.63650653  0.84951049  0.76346574     0.05600
C3156       C  0.63731896  0.82945740  0.77982694     0.21100
H3157       H  0.67868497  0.84516546  0.78568047     0.10800
C3158       C  0.63573119  0.81782681  0.77308657    -0.15100
C3159       C  0.62674767  0.80864245  0.77725157     0.03800
C3160       C  0.61926771  0.81108703  0.78839148    -0.10500
C3161       C  0.62025933  0.82316556  0.79452894    -0.00500
C3162       C  0.62927987  0.83229154  0.79038175    -0.05600
H3163       H  0.64178705  0.81572430  0.76482603     0.06800
H3164       H  0.61462211  0.82520242  0.80309613     0.10200
Br3165     Br  0.66364365  0.82301453  0.79434535    -0.05300
Br3166     Br  0.65061420  0.87242002  0.75559705    -0.02300
Br3167     Br  0.62513829  0.79300897  0.76733740     0.00600
Br3168     Br  0.63103095  0.84809022  0.79999536    -0.03800
C3169       C  0.77469150  0.20755912  0.40584162    -0.11200
C3170       C  0.76522753  0.21124850  0.39664134     0.04300
C3171       C  0.75928586  0.22338196  0.39756792    -0.11800
C3172       C  0.76246895  0.23203198  0.40749592     0.19100
C3173       C  0.77142695  0.22824477  0.41694337    -0.08800
C3174       C  0.77744902  0.21614688  0.41606330    -0.01800
H3175       H  0.75231775  0.22623071  0.39030350     0.05600
C3176       C  0.75660205  0.24509440  0.40748682     0.21100
H3177       H  0.78460818  0.21361855  0.42325149     0.10800
C3178       C  0.74583425  0.24761443  0.41524878    -0.15100
C3179       C  0.73929899  0.25946715  0.41452128     0.03800
C3180       C  0.74346693  0.26907596  0.40568887    -0.10500
C3181       C  0.75466116  0.26662817  0.39836318    -0.00500
C3182       C  0.76120829  0.25482539  0.39923959    -0.05600
H3183       H  0.74233073  0.24019469  0.42172630     0.06800
H3184       H  0.75821257  0.27380054  0.39164761     0.10200
Br3185     Br  0.77617239  0.23955818  0.43084529    -0.05300
Br3186     Br  0.76028334  0.20076213  0.38211174    -0.02300
Br3187     Br  0.72468824  0.26149918  0.42574761     0.00600
Br3188     Br  0.77636042  0.25231781  0.38889059    -0.03800
C3189       C  0.84435925  0.95832675  0.51177277    -0.11200
C3190       C  0.83727461  0.96046107  0.50037382     0.04300
C3191       C  0.83791071  0.97252585  0.49423573    -0.11800
C3192       C  0.84581250  0.98249180  0.49910486     0.19100
C3193       C  0.85282713  0.98032920  0.51056841    -0.08800
C3194       C  0.85191348  0.96841274  0.51685249    -0.01800
H3195       H  0.83230581  0.97410769  0.48555077     0.05600
C3196       C  0.84681903  0.99496787  0.49205962     0.21100
H3197       H  0.85753309  0.96685157  0.52553911     0.10800
C3198       C  0.84335704  0.00656383  0.49828498    -0.15100
C3199       C  0.84503404  0.01854854  0.49221005     0.03800
C3200       C  0.84978813  0.01902967  0.47950689    -0.10500
C3201       C  0.85281172  0.00744213  0.47312338    -0.00500
C3202       C  0.85157404  0.99551092  0.47932440    -0.05600
H3203       H  0.83954434  0.00629680  0.50800951     0.06800
H3204       H  0.85664427  0.00770996  0.46339998     0.10200
Br3205     Br  0.86450104  0.99296543  0.51760830    -0.05300
Br3206     Br  0.82622496  0.94742686  0.49315730    -0.02300
Br3207     Br  0.84039240  0.03391459  0.50148733     0.00600
Br3208     Br  0.85744414  0.98040625  0.47026731    -0.03800
C3209       C  0.80877276  0.14415080  0.42644762    -0.11200
C3210       C  0.82153489  0.14147174  0.43068390     0.04300
C3211       C  0.82435516  0.12966395  0.43663308    -0.11800
C3212       C  0.81481523  0.12024218  0.43842977     0.19100
C3213       C  0.80201583  0.12304193  0.43488084    -0.08800
C3214       C  0.79907634  0.13489813  0.42899626    -0.01800
H3215       H  0.83425658  0.12751792  0.43926810     0.05600
C3216       C  0.81894854  0.10704677  0.44217755     0.21100
H3217       H  0.78923013  0.13662713  0.42591727     0.10800
C3218       C  0.81966639  0.10349362  0.45521021    -0.15100
C3219       C  0.82550140  0.09179374  0.45890867     0.03800
C3220       C  0.83092524  0.08351349  0.44941898    -0.10500
C3221       C  0.82940344  0.08684289  0.43635620    -0.00500
C3222       C  0.82354874  0.09844182  0.43273082    -0.05600
H3223       H  0.81602496  0.11001589  0.46254431     0.06800
H3224       H  0.83336067  0.08071090  0.42885578     0.10200
Br3225     Br  0.78846640  0.11060870  0.43718258    -0.05300
Br3226     Br  0.83598720  0.15279014  0.42789234    -0.02300
Br3227     Br  0.82574227  0.08786766  0.47700977     0.00600
Br3228     Br  0.82276917  0.10254993  0.41470417    -0.03800
C3229       C  0.91944907  0.02225192  0.37173364    -0.11200
C3230       C  0.90717919  0.01623041  0.37102999     0.04300
C3231       C  0.89873950  0.01693894  0.38160661    -0.11800
C3232       C  0.90223284  0.02372737  0.39281938     0.19100
C3233       C  0.91452524  0.02942721  0.39363713    -0.08800
C3234       C  0.92302817  0.02852909  0.38325428    -0.01800
H3235       H  0.88917227  0.01274773  0.38084809     0.05600
C3236       C  0.89258290  0.02623514  0.40300604     0.21100
H3237       H  0.93231627  0.03331144  0.38401805     0.10800
C3238       C  0.89308546  0.01929741  0.41459521    -0.15100
C3239       C  0.88558515  0.02306025  0.42521872     0.03800
C3240       C  0.87739805  0.03397088  0.42427573    -0.10500
C3241       C  0.87637617  0.04034798  0.41236939    -0.00500
C3242       C  0.88396020  0.03665711  0.40185163    -0.05600
H3243       H  0.89969595  0.01123901  0.41552424     0.06800
H3244       H  0.87021502  0.04875248  0.41142752     0.10200
Br3245     Br  0.91965009  0.03964340  0.40827591    -0.05300
Br3246     Br  0.90073290  0.00820757  0.35558266    -0.02300
Br3247     Br  0.88696781  0.01288479  0.44062667     0.00600
Br3248     Br  0.88314907  0.04691370  0.38647283    -0.03800
C3249       C  0.80234445  0.10610118  0.31328340    -0.11200
C3250       C  0.80375345  0.10132546  0.32600956     0.04300
C3251       C  0.80068406  0.10930773  0.33651071    -0.11800
C3252       C  0.79621760  0.12193432  0.33456514     0.19100
C3253       C  0.79392038  0.12633075  0.32198896    -0.08800
C3254       C  0.79684779  0.11841218  0.31151633    -0.01800
H3255       H  0.80250063  0.10592938  0.34623158     0.05600
C3256       C  0.79623505  0.13111296  0.34542329     0.21100
H3257       H  0.79544724  0.12226212  0.30190819     0.10800
C3258       C  0.80685327  0.13939091  0.34668214    -0.15100
C3259       C  0.80748821  0.14841920  0.35665594     0.03800
C3260       C  0.79735462  0.14915025  0.36577141    -0.10500
C3261       C  0.78656530  0.14098624  0.36432421    -0.00500
C3262       C  0.78596663  0.13197675  0.35422334    -0.05600
H3263       H  0.81466896  0.13888284  0.33974785     0.06800
H3264       H  0.77868406  0.14145723  0.37117361     0.10200
Br3265     Br  0.78776776  0.14349367  0.31864044    -0.05300
Br3266     Br  0.81064062  0.08455572  0.32995734    -0.02300
Br3267     Br  0.82218094  0.15983135  0.35668615     0.00600
Br3268     Br  0.77098910  0.12117628  0.35264345    -0.03800
C3269       C  0.85248641  0.06463791  0.28939194    -0.11200
C3270       C  0.85436805  0.05902478  0.30167840     0.04300
C3271       C  0.86648266  0.05408099  0.30500734    -0.11800
C3272       C  0.87688477  0.05470193  0.29639391     0.19100
C3273       C  0.87496537  0.05989155  0.28402176    -0.08800
C3274       C  0.86283810  0.06473608  0.28060030    -0.01800
H3275       H  0.86788451  0.04994387  0.31450124     0.05600
C3276       C  0.88962599  0.05000755  0.30074720     0.21100
H3277       H  0.86166346  0.06904603  0.27115814     0.10800
C3278       C  0.89141136  0.03672810  0.30258453    -0.15100
C3279       C  0.90263749  0.03196148  0.30840622     0.03800
C3280       C  0.91243348  0.04064815  0.31251167    -0.10500
C3281       C  0.91076301  0.05394348  0.31010544    -0.00500
C3282       C  0.89946478  0.05865068  0.30441241    -0.05600
H3283       H  0.88380798  0.03005203  0.29983818     0.06800
H3284       H  0.91802101  0.06084269  0.31319300     0.10200
Br3285     Br  0.88862601  0.06074926  0.27156586    -0.05300
Br3286     Br  0.84094292  0.05764266  0.31438278    -0.02300
Br3287     Br  0.90343277  0.01356730  0.31078196     0.00600
Br3288     Br  0.89746140  0.07703525  0.30285968    -0.03800
C3289       C  0.93668611  0.12963658  0.44951866    -0.11200
C3290       C  0.92387790  0.13025536  0.44478205     0.04300
C3291       C  0.91455767  0.12159526  0.44942575    -0.11800
C3292       C  0.91776021  0.11230580  0.45872825     0.19100
C3293       C  0.93024097  0.11227388  0.46405112    -0.08800
C3294       C  0.93955229  0.12089231  0.45947563    -0.01800
H3295       H  0.90499243  0.12155666  0.44516955     0.05600
C3296       C  0.90882920  0.10139722  0.46102615     0.21100
H3297       H  0.94927524  0.12031800  0.46331024     0.10800
C3298       C  0.91151117  0.08958667  0.45497059    -0.15100
C3299       C  0.90296239  0.07919231  0.45586837     0.03800
C3300       C  0.89137448  0.08051512  0.46293311    -0.10500
C3301       C  0.88901621  0.09215773  0.46957979    -0.00500
C3302       C  0.89762219  0.10260870  0.46859036    -0.05600
H3303       H  0.92021665  0.08854588  0.44926273     0.06800
H3304       H  0.88016511  0.09336550  0.47501307     0.10200
Br3305     Br  0.93518736  0.10004166  0.47701515    -0.05300
Br3306     Br  0.91880591  0.14146892  0.43093198    -0.02300
Br3307     Br  0.90776994  0.06344569  0.44723557     0.00600
Br3308     Br  0.89365679  0.11840933  0.47743867    -0.03800
C3309       C  0.96995304  0.11412636  0.40129002    -0.11200
C3310       C  0.96106504  0.10381586  0.40236958     0.04300
C3311       C  0.96096421  0.09399033  0.39311242    -0.11800
C3312       C  0.96954775  0.09416386  0.38266110     0.19100
C3313       C  0.97825307  0.10455758  0.38140402    -0.08800
C3314       C  0.97851685  0.11434556  0.39078456    -0.01800
H3315       H  0.95413190  0.08610519  0.39407930     0.05600
C3316       C  0.96896183  0.08339777  0.37323229     0.21100
H3317       H  0.98523806  0.12230546  0.38970886     0.10800
C3318       C  0.96448332  0.08572544  0.36068408    -0.15100
C3319       C  0.96167252  0.07547914  0.35226034     0.03800
C3320       C  0.96312468  0.06255125  0.35650085    -0.10500
C3321       C  0.96856484  0.06035743  0.36875333    -0.00500
C3322       C  0.97144024  0.07060482  0.37707733    -0.05600
H3323       H  0.96264876  0.09555714  0.35760847     0.06800
H3324       H  0.97002355  0.05058918  0.37219516     0.10200
Br3325     Br  0.98997477  0.10575774  0.36714486    -0.05300
Br3326     Br  0.94917061  0.10220998  0.41651331    -0.02300
Br3327     Br  0.95555946  0.08001223  0.33536397     0.00600
Br3328     Br  0.97830235  0.06661266  0.39382005    -0.03800
C3329       C  0.89096750  0.16933256  0.28641219    -0.11200
C3330       C  0.89089828  0.15662470  0.29143245     0.04300
C3331       C  0.88271273  0.14729858  0.28604207    -0.11800
C3332       C  0.87455687  0.15029646  0.27566945     0.19100
C3333       C  0.87501012  0.16274221  0.27028428    -0.08800
C3334       C  0.88313870  0.17212635  0.27566180    -0.01800
H3335       H  0.88225539  0.13778357  0.29037243     0.05600
C3336       C  0.86447389  0.14086414  0.27195745     0.21100
H3337       H  0.88312581  0.18174622  0.27155498     0.10800
C3338       C  0.85157636  0.14382928  0.27475023    -0.15100
C3339       C  0.84193814  0.13443135  0.27377961     0.03800
C3340       C  0.84522154  0.12163932  0.27024855    -0.10500
C3341       C  0.85797833  0.11897396  0.26641667    -0.00500
C3342       C  0.86757897  0.12849022  0.26723166    -0.05600
H3343       H  0.84907001  0.15339140  0.27823212     0.06800
H3344       H  0.86067007  0.10929287  0.26345719     0.10200
Br3345     Br  0.86459313  0.16735357  0.25568401    -0.05300
Br3346     Br  0.90071872  0.15147648  0.30629528    -0.02300
Br3347     Br  0.82457062  0.13978564  0.27754353     0.00600
Br3348     Br  0.88484262  0.12414779  0.26211523    -0.03800
C3349       C  0.93920178  0.19227672  0.33554094    -0.11200
C3350       C  0.94587528  0.20180849  0.34279265     0.04300
C3351       C  0.95184612  0.19847775  0.35446204    -0.11800
C3352       C  0.95152893  0.18573958  0.35897287     0.19100
C3353       C  0.94574206  0.17606875  0.35134657    -0.08800
C3354       C  0.93968461  0.17935993  0.33974830    -0.01800
H3355       H  0.95647648  0.20592074  0.36021495     0.05600
C3356       C  0.95610626  0.18282988  0.37215248     0.21100
H3357       H  0.93475306  0.17184048  0.33436066     0.10800
C3358       C  0.94750845  0.18436868  0.38246098    -0.15100
C3359       C  0.95063624  0.17996161  0.39482954     0.03800
C3360       C  0.96264177  0.17377797  0.39701602    -0.10500
C3361       C  0.97161989  0.17323096  0.38680704    -0.00500
C3362       C  0.96841059  0.17763461  0.37445893    -0.05600
H3363       H  0.93807459  0.18856085  0.38074445     0.06800
H3364       H  0.98092987  0.16867127  0.38818976     0.10200
Br3365     Br  0.94516379  0.15836344  0.35683025    -0.05300
Br3366     Br  0.94728782  0.21950641  0.33743638    -0.02300
Br3367     Br  0.93775573  0.18233388  0.40795628     0.00600
Br3368     Br  0.98078306  0.17566107  0.36084500    -0.03800
C3369       C  0.87939030  0.20974418  0.33341354    -0.11200
C3370       C  0.88138122  0.21621000  0.34528174     0.04300
C3371       C  0.87191418  0.21552782  0.35496227    -0.11800
C3372       C  0.86044354  0.20852596  0.35297653     0.19100
C3373       C  0.85817869  0.20275728  0.34085895    -0.08800
C3374       C  0.86758907  0.20339563  0.33126901    -0.01800
H3375       H  0.87371586  0.22003445  0.36423953     0.05600
C3376       C  0.85128462  0.20633454  0.36373373     0.21100
H3377       H  0.86586574  0.19841512  0.32221431     0.10800
C3378       C  0.83881402  0.21155096  0.36298680    -0.15100
C3379       C  0.82902202  0.20729824  0.37125719     0.03800
C3380       C  0.83165132  0.19760202  0.38047271    -0.10500
C3381       C  0.84443696  0.19336176  0.38204015    -0.00500
C3382       C  0.85422489  0.19763376  0.37375882    -0.05600
H3383       H  0.83653144  0.21846872  0.35549333     0.06800
H3384       H  0.84667904  0.18603891  0.38915033     0.10200
Br3385     Br  0.84286040  0.19289494  0.33721525    -0.05300
Br3386     Br  0.89723266  0.22497188  0.34931982    -0.02300
Br3387     Br  0.81227122  0.21504383  0.36942715     0.00600
Br3388     Br  0.87114444  0.19035098  0.37576643    -0.03800
C3389       C  0.97397797  0.47812991  0.15459677    -0.11200
C3390       C  0.98209608  0.47809881  0.16560532     0.04300
C3391       C  0.99422688  0.48416039  0.16510139    -0.11800
C3392       C  0.99846032  0.49022574  0.15378411     0.19100
C3393       C  0.99027003  0.49058294  0.14298511    -0.08800
C3394       C  0.97815528  0.48468569  0.14348338    -0.01800
H3395       H  0.00045020  0.48401381  0.17351029     0.05600
C3396       C  0.01147183  0.49607757  0.15319156     0.21100
H3397       H  0.97219829  0.48480139  0.13488548     0.10800
C3398       C  0.02166635  0.48899577  0.14778525    -0.15100
C3399       C  0.03376190  0.49472547  0.14571553     0.03800
C3400       C  0.03579488  0.50782500  0.14913064    -0.10500
C3401       C  0.02563766  0.51469533  0.15500560    -0.00500
C3402       C  0.01355753  0.50896154  0.15696316    -0.05600
H3403       H  0.02010263  0.47904135  0.14488920     0.06800
H3404       H  0.02691536  0.52475605  0.15765130     0.10200
Br3405     Br  0.99541033  0.49870106  0.12717682    -0.05300
Br3406     Br  0.97723378  0.47019401  0.18162318    -0.02300
Br3407     Br  0.04703570  0.48403124  0.13841483     0.00600
Br3408     Br  0.99994362  0.51926484  0.16415695    -0.03800
C3409       C  0.78993431  0.40161621  0.23197712    -0.11200
C3410       C  0.78324012  0.41339535  0.22993919     0.04300
C3411       C  0.77113417  0.41536354  0.23562375    -0.11800
C3412       C  0.76549944  0.40581321  0.24330686     0.19100
C3413       C  0.77219243  0.39422990  0.24559531    -0.08800
C3414       C  0.78432559  0.39225236  0.24004829    -0.01800
H3415       H  0.76600497  0.42432360  0.23391372     0.05600
C3416       C  0.75244781  0.40777904  0.24860767     0.21100
H3417       H  0.78915237  0.38311550  0.24168335     0.10800
C3418       C  0.74172174  0.40385342  0.24133427    -0.15100
C3419       C  0.72939687  0.40349138  0.24685025     0.03800
C3420       C  0.72776018  0.40695305  0.25995568    -0.10500
C3421       C  0.73839731  0.41194717  0.26681592    -0.00500
C3422       C  0.75066768  0.41237094  0.26123751    -0.05600
H3423       H  0.74303145  0.40059557  0.23147764     0.06800
H3424       H  0.73736870  0.41481437  0.27682132     0.10200
Br3425     Br  0.76481759  0.38062205  0.25578722    -0.05300
Br3426     Br  0.78987955  0.42727875  0.21960686    -0.02300
Br3427     Br  0.71532925  0.39816394  0.23596583     0.00600
Br3428     Br  0.76487903  0.41853857  0.27143057    -0.03800
C3429       C  0.85365966  0.41797894  0.20178585    -0.11200
C3430       C  0.86306729  0.42186837  0.21097885     0.04300
C3431       C  0.87446909  0.42790828  0.20685936    -0.11800
C3432       C  0.87671159  0.43021056  0.19374461     0.19100
C3433       C  0.86723514  0.42674791  0.18464881    -0.08800
C3434       C  0.85582318  0.42084949  0.18870121    -0.01800
H3435       H  0.88176942  0.43055201  0.21388958     0.05600
C3436       C  0.88934545  0.43524941  0.18947696     0.21100
H3437       H  0.84889386  0.41791802  0.18141918     0.10800
C3438       C  0.89986241  0.42676844  0.18883683    -0.15100
C3439       C  0.91136826  0.43044058  0.18278429     0.03800
C3440       C  0.91245263  0.44289477  0.17723964    -0.10500
C3441       C  0.90220281  0.45167943  0.17885555    -0.00500
C3442       C  0.89070583  0.44792791  0.18484349    -0.05600
H3443       H  0.89890387  0.41703316  0.19255678     0.06800
H3444       H  0.90280319  0.46129925  0.17479553     0.10200
Br3445     Br  0.86988751  0.42889847  0.16644587    -0.05300
Br3446     Br  0.86134702  0.41904017  0.22920419    -0.02300
Br3447     Br  0.92496761  0.41782080  0.18227796     0.00600
Br3448     Br  0.87683466  0.46016887  0.18583842    -0.03800
C3449       C  0.79131768  0.32643521  0.12682044    -0.11200
C3450       C  0.79884649  0.32372200  0.13785120     0.04300
C3451       C  0.79938056  0.33261138  0.14800862    -0.11800
C3452       C  0.79249524  0.34426114  0.14747406     0.19100
C3453       C  0.78450812  0.34673895  0.13675466    -0.08800
C3454       C  0.78388201  0.33779317  0.12657991    -0.01800
H3455       H  0.80552964  0.33059619  0.15622840     0.05600
C3456       C  0.79478921  0.35404060  0.15768654     0.21100
H3457       H  0.77804390  0.34001753  0.11819515     0.10800
C3458       C  0.80156527  0.36535939  0.15457989    -0.15100
C3459       C  0.80590254  0.37383960  0.16421749     0.03800
C3460       C  0.80344652  0.37099023  0.17735233    -0.10500
C3461       C  0.79596782  0.36001557  0.18030350    -0.00500
C3462       C  0.79175199  0.35154828  0.17065963    -0.05600
H3463       H  0.80403476  0.36729118  0.14461218     0.06800
H3464       H  0.79378784  0.35766525  0.19024320     0.10200
Br3465     Br  0.77451701  0.36229574  0.13552721    -0.05300
Br3466     Br  0.80853779  0.30800498  0.13970201    -0.02300
Br3467     Br  0.81581661  0.38848568  0.15857517     0.00600
Br3468     Br  0.78225840  0.33646761  0.17576226    -0.03800
C3469       C  0.86659053  0.44927548  0.06784099    -0.11200
C3470       C  0.86477595  0.44464269  0.08055029     0.04300
C3471       C  0.87311912  0.44864853  0.09043774    -0.11800
C3472       C  0.88323648  0.45734796  0.08803603     0.19100
C3473       C  0.88446394  0.46268292  0.07560188    -0.08800
C3474       C  0.87623508  0.45861166  0.06567073    -0.01800
H3475       H  0.87217506  0.44433164  0.09990236     0.05600
C3476       C  0.89351957  0.45902405  0.09791162     0.21100
H3477       H  0.87770407  0.46245836  0.05607193     0.10800
C3478       C  0.90605517  0.45490359  0.09484327    -0.15100
C3479       C  0.91589993  0.45497581  0.10405463     0.03800
C3480       C  0.91327541  0.45906046  0.11678602    -0.10500
C3481       C  0.90084969  0.46362524  0.11978444    -0.00500
C3482       C  0.89097035  0.46354130  0.11051004    -0.05600
H3483       H  0.90814178  0.45129774  0.08524424     0.06800
H3484       H  0.89866303  0.46678327  0.12951399     0.10200
Br3485     Br  0.89751971  0.47524434  0.07158086    -0.05300
Br3486     Br  0.85209929  0.43184170  0.08498548    -0.02300
Br3487     Br  0.93275898  0.44961195  0.09847639     0.00600
Br3488     Br  0.87419141  0.46952744  0.11558849    -0.03800
C3489       C  0.80234968  0.33638919  0.06583436    -0.11200
C3490       C  0.79274258  0.34556761  0.06253118     0.04300
C3491       C  0.79634584  0.35760984  0.05749491    -0.11800
C3492       C  0.80936794  0.36069741  0.05556666     0.19100
C3493       C  0.81887703  0.35136051  0.05814436    -0.08800
C3494       C  0.81533863  0.33933023  0.06314602    -0.01800
H3495       H  0.78897875  0.36473186  0.05538461     0.05600
C3496       C  0.81305214  0.37398891  0.05188590     0.21100
H3497       H  0.82289245  0.33250638  0.06554425     0.10800
C3498       C  0.81609455  0.38287185  0.06164829    -0.15100
C3499       C  0.82108909  0.39507655  0.05868029     0.03800
C3500       C  0.82336366  0.39848038  0.04566564    -0.10500
C3501       C  0.81948074  0.38982493  0.03588455    -0.00500
C3502       C  0.81432094  0.37768196  0.03891639    -0.05600
H3503       H  0.81484112  0.38016803  0.07166290     0.06800
H3504       H  0.82099322  0.39223917  0.02583687     0.10200
Br3505     Br  0.83689781  0.35490729  0.05562757    -0.05300
Br3506     Br  0.77457281  0.34244921  0.06461265    -0.02300
Br3507     Br  0.82439256  0.40657026  0.07290063     0.00600
Br3508     Br  0.80964058  0.36621197  0.02511789    -0.03800
C3509       C  0.99202370  0.32837405  0.02876970    -0.11200
C3510       C  0.98899700  0.31775198  0.02061962     0.04300
C3511       C  0.99638804  0.31539289  0.00955649    -0.11800
C3512       C  0.00683258  0.32335199  0.00631454     0.19100
C3513       C  0.01022887  0.33359024  0.01463967    -0.08800
C3514       C  0.00293958  0.33593916  0.02578010    -0.01800
H3515       H  0.99367228  0.30755001  0.00314782     0.05600
C3516       C  0.01286118  0.32190874  0.99342144     0.21100
H3517       H  0.00550954  0.34412278  0.03180291     0.10800
C3518       C  0.00561498  0.32534159  0.98252882    -0.15100
C3519       C  0.01112099  0.32531496  0.97020628     0.03800
C3520       C  0.02422767  0.32184282  0.96858930    -0.10500
C3521       C  0.03120945  0.31757096  0.97944787    -0.00500
C3522       C  0.02562810  0.31755326  0.99177517    -0.05600
H3523       H  0.99566322  0.32837329  0.98366894     0.06800
H3524       H  0.04122567  0.31472395  0.97845893     0.10200
Br3525     Br  0.02396284  0.34538430  0.01058215    -0.05300
Br3526     Br  0.97460850  0.30633940  0.02337733    -0.02300
Br3527     Br  0.00007680  0.32993944  0.95606628     0.00600
Br3528     Br  0.03578191  0.31161414  0.00607403    -0.03800
C3529       C  0.88046236  0.40302785  0.02702537    -0.11200
C3530       C  0.87806395  0.38964563  0.02528815     0.04300
C3531       C  0.88813967  0.38073656  0.02691080    -0.11800
C3532       C  0.90052053  0.38482663  0.03066865     0.19100
C3533       C  0.90295870  0.39815508  0.03209616    -0.08800
C3534       C  0.89306819  0.40706896  0.03006440    -0.01800
H3535       H  0.88617259  0.37050359  0.02579175     0.05600
C3536       C  0.91069149  0.37519238  0.03366858     0.21100
H3537       H  0.89512755  0.41723104  0.03160033     0.10800
C3538       C  0.92219378  0.37531849  0.02656152    -0.15100
C3539       C  0.93282813  0.36786709  0.03029542     0.03800
C3540       C  0.93196654  0.35974515  0.04125609    -0.10500
C3541       C  0.92007581  0.35898746  0.04780136    -0.00500
C3542       C  0.90955746  0.36668026  0.04419535    -0.05600
H3543       H  0.92308788  0.38172355  0.01835283     0.06800
H3544       H  0.91910812  0.35286446  0.05620677     0.10200
Br3545     Br  0.91923222  0.40471621  0.03818508    -0.05300
Br3546     Br  0.86114230  0.38264193  0.02212647    -0.02300
Br3547     Br  0.94819714  0.36981457  0.02011603     0.00600
Br3548     Br  0.89431134  0.36603413  0.05471489    -0.03800
C3549       C  0.96215671  0.42027299  0.13230365    -0.11200
C3550       C  0.95700971  0.40764066  0.13270829     0.04300
C3551       C  0.96224826  0.39802408  0.12482017    -0.11800
C3552       C  0.97276285  0.40063199  0.11669837     0.19100
C3553       C  0.97860622  0.41292263  0.11715549    -0.08800
C3554       C  0.97320252  0.42265457  0.12480591    -0.01800
H3555       H  0.95755625  0.38866139  0.12442781     0.05600
C3556       C  0.97579882  0.39122119  0.10636576     0.21100
H3557       H  0.97742828  0.43224126  0.12459411     0.10800
C3558       C  0.97382674  0.39498554  0.09352484    -0.15100
C3559       C  0.97382781  0.38592178  0.08351873     0.03800
C3560       C  0.97567054  0.37268208  0.08632368    -0.10500
C3561       C  0.97856550  0.36907359  0.09908419    -0.00500
C3562       C  0.97861215  0.37819755  0.10906756    -0.05600
H3563       H  0.97160667  0.40497656  0.09132652     0.06800
H3564       H  0.98016618  0.35900826  0.10145625     0.10200
Br3565     Br  0.99374526  0.41694603  0.10727250    -0.05300
Br3566     Br  0.94195944  0.40314951  0.14255537    -0.02300
Br3567     Br  0.97098426  0.39241518  0.06639725     0.00600
Br3568     Br  0.98214492  0.37234627  0.12627012    -0.03800
C3569       C  0.92297561  0.25022504  0.20954541    -0.11200
C3570       C  0.93087265  0.25596120  0.21918193     0.04300
C3571       C  0.93253548  0.24976225  0.23106002    -0.11800
C3572       C  0.92666326  0.23783090  0.23355489     0.19100
C3573       C  0.91970597  0.23160847  0.22364692    -0.08800
C3574       C  0.91793916  0.23779235  0.21178801    -0.01800
H3575       H  0.93791358  0.25458693  0.23865226     0.05600
C3576       C  0.92611070  0.23309722  0.24700286     0.21100
H3577       H  0.91199427  0.23311612  0.20453844     0.10800
C3578       C  0.91810117  0.23959918  0.25575888    -0.15100
C3579       C  0.91615917  0.23489381  0.26824747     0.03800
C3580       C  0.92215508  0.22323579  0.27212648    -0.10500
C3581       C  0.93083485  0.21721213  0.26353221    -0.00500
C3582       C  0.93291127  0.22210717  0.25111526    -0.05600
H3583       H  0.91310098  0.24828558  0.25274877     0.06800
H3584       H  0.93577860  0.20842629  0.26631125     0.10200
Br3585     Br  0.91132069  0.21526707  0.22627191    -0.05300
Br3586     Br  0.93874870  0.27270226  0.21750458    -0.02300
Br3587     Br  0.90534235  0.24508313  0.27935801     0.00600
Br3588     Br  0.94508096  0.21353241  0.24009692    -0.03800
C3589       C  0.88951893  0.30499315  0.20043172    -0.11200
C3590       C  0.87591494  0.30534419  0.20150541     0.04300
C3591       C  0.86987688  0.31626570  0.20660599    -0.11800
C3592       C  0.87707934  0.32702906  0.21053823     0.19100
C3593       C  0.89065273  0.32653298  0.21008007    -0.08800
C3594       C  0.89678296  0.31557316  0.20498167    -0.01800
H3595       H  0.85941620  0.31671770  0.20668755     0.05600
C3596       C  0.87002383  0.33922334  0.21268359     0.21100
H3597       H  0.90722198  0.31544566  0.20428216     0.10800
C3598       C  0.86255247  0.34091774  0.22386288    -0.15100
C3599       C  0.85359583  0.35107231  0.22476906     0.03800
C3600       C  0.85191295  0.35951368  0.21421403    -0.10500
C3601       C  0.85989322  0.35807682  0.20334784    -0.00500
C3602       C  0.86883963  0.34808867  0.20250763    -0.05600
H3603       H  0.86328110  0.33398529  0.23164444     0.06800
H3604       H  0.85889892  0.36454623  0.19520130     0.10200
Br3605     Br  0.90103292  0.34083155  0.21576791    -0.05300
Br3606     Br  0.86481583  0.29210972  0.19461364    -0.02300
Br3607     Br  0.84324352  0.35213520  0.24006699     0.00600
Br3608     Br  0.87830689  0.34625996  0.18667600    -0.03800
C3609       C  0.93032380  0.28591129  0.14591660    -0.11200
C3610       C  0.93642810  0.29812756  0.14516185     0.04300
C3611       C  0.94145463  0.30237453  0.13339627    -0.11800
C3612       C  0.94054202  0.29468900  0.12229018     0.19100
C3613       C  0.93496675  0.28233121  0.12308517    -0.08800
C3614       C  0.92994523  0.27801922  0.13483503    -0.01800
H3615       H  0.94590681  0.31184461  0.13283979     0.05600
C3616       C  0.94506950  0.30003794  0.10992197     0.21100
H3617       H  0.92531697  0.26862696  0.13516901     0.10800
C3618       C  0.95832619  0.30041678  0.10731915    -0.15100
C3619       C  0.96306249  0.30681522  0.09641255     0.03800
C3620       C  0.95436565  0.31298728  0.08784273    -0.10500
C3621       C  0.94102280  0.31197294  0.09023373    -0.00500
C3622       C  0.93637057  0.30573316  0.10122257    -0.05600
H3623       H  0.96504583  0.29601459  0.11401489     0.06800
H3624       H  0.93414495  0.31667325  0.08391841     0.10200
Br3625     Br  0.93379338  0.27119156  0.10830429    -0.05300
Br3626     Br  0.93851161  0.30942789  0.15975704    -0.02300
Br3627     Br  0.98146903  0.30682889  0.09412462     0.00600
Br3628     Br  0.91813564  0.30617125  0.10452176    -0.03800
C3629       C  0.82623910  0.27976089  0.10714353    -0.11200
C3630       C  0.82354279  0.26942785  0.11567213     0.04300
C3631       C  0.83318027  0.26490426  0.12396759    -0.11800
C3632       C  0.84561807  0.27019433  0.12366248     0.19100
C3633       C  0.84873818  0.27933570  0.11412626    -0.08800
C3634       C  0.83906337  0.28408645  0.10598921    -0.01800
H3635       H  0.83082997  0.25759577  0.13106012     0.05600
C3636       C  0.85465221  0.26742089  0.13432786     0.21100
H3637       H  0.84144856  0.29177337  0.09932414     0.10800
C3638       C  0.86533072  0.25935433  0.13231580    -0.15100
C3639       C  0.87492092  0.25807320  0.14180383     0.03800
C3640       C  0.87382121  0.26499994  0.15356124    -0.10500
C3641       C  0.86257928  0.27227927  0.15580664    -0.00500
C3642       C  0.85312934  0.27361765  0.14631820    -0.05600
H3643       H  0.86648379  0.25449797  0.12311469     0.06800
H3644       H  0.86143458  0.27759480  0.16475476     0.10200
Br3645     Br  0.86581402  0.28640240  0.11261232    -0.05300
Br3646     Br  0.80698494  0.26107417  0.11665693    -0.02300
Br3647     Br  0.88964384  0.24767732  0.13748865     0.00600
Br3648     Br  0.83893627  0.28504823  0.14978634    -0.03800
C3649       C  0.53670895  0.00617775  0.16018829    -0.11200
C3650       C  0.52830077  0.00888036  0.17061905     0.04300
C3651       C  0.51649000  0.00233059  0.17162597    -0.11800
C3652       C  0.51286354  0.99303988  0.16245517     0.19100
C3653       C  0.52140721  0.98996573  0.15235892    -0.08800
C3654       C  0.53323573  0.99642471  0.15136034    -0.01800
H3655       H  0.50997037  0.00468453  0.17945565     0.05600
C3656       C  0.49972844  0.98743921  0.16286244     0.21100
H3657       H  0.53944241  0.99424429  0.14323553     0.10800
C3658       C  0.48933131  0.99486001  0.15840824    -0.15100
C3659       C  0.47698371  0.98946943  0.15709147     0.03800
C3660       C  0.47488384  0.97635675  0.16033216    -0.10500
C3661       C  0.48520741  0.96923400  0.16559536    -0.00500
C3662       C  0.49753858  0.97464617  0.16682733    -0.05600
H3663       H  0.49093674  0.00479644  0.15552929     0.06800
H3664       H  0.48387819  0.95918613  0.16820151     0.10200
Br3665     Br  0.51689491  0.97772351  0.13914107    -0.05300
Br3666     Br  0.53228371  0.02127419  0.18387188    -0.02300
Br3667     Br  0.46357527  0.00059782  0.15077903     0.00600
Br3668     Br  0.51120832  0.96409568  0.17352516    -0.03800
C3669       C  0.78660333  0.07927394  0.25548380    -0.11200
C3670       C  0.77749645  0.06951435  0.25858864     0.04300
C3671       C  0.76557237  0.06909014  0.25217579    -0.11800
C3672       C  0.76241610  0.07827942  0.24279047     0.19100
C3673       C  0.77140197  0.08796916  0.23968186    -0.08800
C3674       C  0.78340603  0.08826504  0.24582042    -0.01800
H3675       H  0.75860938  0.06168631  0.25468769     0.05600
C3676       C  0.74946994  0.07809956  0.23678726     0.21100
H3677       H  0.79002820  0.09599902  0.24340061     0.10800
C3678       C  0.73881864  0.08227494  0.24399215    -0.15100
C3679       C  0.72661500  0.08350704  0.23829302     0.03800
C3680       C  0.72492252  0.08044143  0.22507176    -0.10500
C3681       C  0.73557009  0.07567335  0.21808220    -0.00500
C3682       C  0.74774019  0.07450654  0.22381669    -0.05600
H3683       H  0.74009516  0.08493399  0.25403371     0.06800
H3684       H  0.73456544  0.07320862  0.20796687     0.10200
Br3685     Br  0.76729974  0.10165479  0.22788864    -0.05300
Br3686     Br  0.78031424  0.05666751  0.27163784    -0.02300
Br3687     Br  0.71287200  0.08945172  0.24923042     0.00600
Br3688     Br  0.76180135  0.06818531  0.21353298    -0.03800
C3689       C  0.66059904  0.06070723  0.19791452    -0.11200
C3690       C  0.65854235  0.05418491  0.18603713     0.04300
C3691       C  0.64652050  0.04850722  0.18342842    -0.11800
C3692       C  0.63654686  0.04883660  0.19254789     0.19100
C3693       C  0.63904496  0.05392235  0.20487275    -0.08800
C3694       C  0.65093557  0.05987553  0.20745245    -0.01800
H3695       H  0.64472443  0.04435467  0.17398381     0.05600
C3696       C  0.62322575  0.04576158  0.18832437     0.21100
H3697       H  0.65233557  0.06444256  0.21676567     0.10800
C3698       C  0.61808888  0.03332655  0.18996265    -0.15100
C3699       C  0.60592866  0.03009113  0.18483014     0.03800
C3700       C  0.59878473  0.03940334  0.17781754    -0.10500
C3701       C  0.60368921  0.05205122  0.17698258    -0.00500
C3702       C  0.61578034  0.05522923  0.18207171    -0.05600
H3703       H  0.62366131  0.02606113  0.19500770     0.06800
H3704       H  0.59844708  0.05938458  0.17168861     0.10200
Br3705     Br  0.62615215  0.05366353  0.21813031    -0.05300
Br3706     Br  0.67132654  0.05300620  0.17266170    -0.02300
Br3707     Br  0.59960339  0.01292363  0.18788758     0.00600
Br3708     Br  0.62207253  0.07252045  0.17964774    -0.03800
C3709       C  0.73725459  0.21156528  0.07762210    -0.11200
C3710       C  0.75045993  0.21282079  0.08100869     0.04300
C3711       C  0.75651192  0.22492005  0.08028809    -0.11800
C3712       C  0.74967957  0.23589541  0.07630340     0.19100
C3713       C  0.73677069  0.23457936  0.07230248    -0.08800
C3714       C  0.73070133  0.22250565  0.07291371    -0.01800
H3715       H  0.76652034  0.22585581  0.08322252     0.05600
C3716       C  0.75601532  0.24869974  0.07708575     0.21100
H3717       H  0.72061382  0.22183289  0.07020699     0.10800
C3718       C  0.76542721  0.25207780  0.06799581    -0.15100
C3719       C  0.77227427  0.26374327  0.06905926     0.03800
C3720       C  0.76981232  0.27222453  0.07954460    -0.10500
C3721       C  0.76001386  0.26892120  0.08834218    -0.00500
C3722       C  0.75320831  0.25730250  0.08722556    -0.05600
H3723       H  0.76755341  0.24552277  0.06010909     0.06800
H3724       H  0.75793880  0.27515471  0.09649160     0.10200
Br3725     Br  0.72695152  0.24911486  0.06635596    -0.05300
Br3726     Br  0.76088299  0.19858519  0.08672872    -0.02300
Br3727     Br  0.78470122  0.26731976  0.05579301     0.00600
Br3728     Br  0.74068984  0.25326766  0.10025814    -0.03800
C3729       C  0.72228050  0.15152939  0.11879524    -0.11200
C3730       C  0.72370589  0.13818206  0.11632539     0.04300
C3731       C  0.72309153  0.12937703  0.12651171    -0.11800
C3732       C  0.72075757  0.13364803  0.13914203     0.19100
C3733       C  0.72020299  0.14702004  0.14171953    -0.08800
C3734       C  0.72116790  0.15585886  0.13157683    -0.01800
H3735       H  0.72364558  0.11911051  0.12447780     0.05600
C3736       C  0.71715141  0.12412965  0.14911202     0.21100
H3737       H  0.71996387  0.16607519  0.13357979     0.10800
C3738       C  0.72526160  0.12205590  0.15974814    -0.15100
C3739       C  0.72127107  0.11420608  0.16999600     0.03800
C3740       C  0.70899799  0.10820959  0.16958844    -0.10500
C3741       C  0.70125235  0.10974986  0.15858719    -0.00500
C3742       C  0.70515877  0.11771956  0.14847273    -0.05600
H3743       H  0.73456478  0.12684227  0.16022617     0.06800
H3744       H  0.69177268  0.10531690  0.15814953     0.10200
Br3745     Br  0.71648043  0.15361048  0.15863606    -0.05300
Br3746     Br  0.72603935  0.13142437  0.09919772    -0.02300
Br3747     Br  0.73304879  0.11192884  0.18413336     0.00600
Br3748     Br  0.69322785  0.12045510  0.13454439    -0.03800
C3749       C  0.67101249  0.96163058  0.98020849    -0.11200
C3750       C  0.66457905  0.96484146  0.99185042     0.04300
C3751       C  0.66678911  0.97684455  0.99768508    -0.11800
C3752       C  0.67516436  0.98589706  0.99215328     0.19100
C3753       C  0.68196587  0.98261206  0.98089672    -0.08800
C3754       C  0.67991935  0.97055952  0.97508089    -0.01800
H3755       H  0.66159389  0.97932448  0.00642058     0.05600
C3756       C  0.67603107  0.99885417  0.99811536     0.21100
H3757       H  0.68502226  0.96838385  0.96622293     0.10800
C3758       C  0.68190228  0.00013154  0.01021899    -0.15100
C3759       C  0.68082637  0.01159361  0.01734081     0.03800
C3760       C  0.67378597  0.02218712  0.01222723    -0.10500
C3761       C  0.66853072  0.02102175  0.99974770    -0.00500
C3762       C  0.66944850  0.00946275  0.99279247    -0.05600
H3763       H  0.68684598  0.99192062  0.01441268     0.06800
H3764       H  0.66305293  0.02890251  0.99560217     0.10200
Br3765     Br  0.69387633  0.99436860  0.97296401    -0.05300
Br3766     Br  0.65234521  0.95375440  0.00030355    -0.02300
Br3767     Br  0.68851142  0.01143711  0.03423644     0.00600
Br3768     Br  0.66036881  0.00820118  0.97668133    -0.03800
C3769       C  0.63948080  0.03604221  0.06578109    -0.11200
C3770       C  0.64441976  0.03022164  0.07704794     0.04300
C3771       C  0.63599848  0.02677996  0.08703287    -0.11800
C3772       C  0.62267138  0.02909783  0.08605412     0.19100
C3773       C  0.61771235  0.03463073  0.07468134    -0.08800
C3774       C  0.62606627  0.03779387  0.06460767    -0.01800
H3775       H  0.63990657  0.02261577  0.09578629     0.05600
C3776       C  0.61443865  0.02730827  0.09757177     0.21100
H3777       H  0.62209296  0.04241478  0.05611594     0.10800
C3778       C  0.61680835  0.03513881  0.10836060    -0.15100
C3779       C  0.60869747  0.03475851  0.11909013     0.03800
C3780       C  0.59784417  0.02645331  0.11912304    -0.10500
C3781       C  0.59591124  0.01803469  0.10863148    -0.00500
C3782       C  0.60414346  0.01838333  0.09790084    -0.05600
H3783       H  0.62488258  0.04181859  0.10831536     0.06800
H3784       H  0.58773647  0.01148782  0.10857219     0.10200
Br3785     Br  0.59989345  0.03949929  0.07293083    -0.05300
Br3786     Br  0.66246223  0.02666153  0.07938118    -0.02300
Br3787     Br  0.61322724  0.04563875  0.13348384     0.00600
Br3788     Br  0.60100028  0.00652669  0.08397131    -0.03800
C3789       C  0.69211262  0.08393091  0.04145595    -0.11200
C3790       C  0.69723812  0.08698097  0.05378421     0.04300
C3791       C  0.70283618  0.09912161  0.05596918    -0.11800
C3792       C  0.70362993  0.10829139  0.04608693     0.19100
C3793       C  0.69994886  0.10477222  0.03351763    -0.08800
C3794       C  0.69423324  0.09269684  0.03127843    -0.01800
H3795       H  0.70583762  0.10173881  0.06565174     0.05600
C3796       C  0.70589488  0.12195734  0.04965431     0.21100
H3797       H  0.69072282  0.09052994  0.02166461     0.10800
C3798       C  0.71846151  0.12692848  0.05053369    -0.15100
C3799       C  0.72068500  0.13936232  0.05557097     0.03800
C3800       C  0.71016393  0.14696098  0.05994983    -0.10500
C3801       C  0.69756971  0.14213409  0.05827804    -0.00500
C3802       C  0.69540379  0.12977466  0.05328157    -0.05600
H3803       H  0.72657102  0.12099520  0.04761892     0.06800
H3804       H  0.68932890  0.14767843  0.06156134     0.10200
Br3805     Br  0.70162732  0.11657972  0.01939176    -0.05300
Br3806     Br  0.69630873  0.07559212  0.06836621    -0.02300
Br3807     Br  0.73826410  0.14526408  0.05619419     0.00600
Br3808     Br  0.67793144  0.12356552  0.05246158    -0.03800
C3809       C  0.57471244  0.12054836  0.04237609    -0.11200
C3810       C  0.58427662  0.12562606  0.03412210     0.04300
C3811       C  0.59528997  0.11826880  0.03130634    -0.11800
C3812       C  0.59689501  0.10590051  0.03659109     0.19100
C3813       C  0.58733214  0.10083758  0.04476985    -0.08800
C3814       C  0.57631609  0.10808264  0.04746066    -0.01800
H3815       H  0.60265018  0.12220977  0.02501663     0.05600
C3816       C  0.60888897  0.09862956  0.03414115     0.21100
H3817       H  0.56915333  0.10409670  0.05395277     0.10800
C3818       C  0.62005485  0.10206758  0.04093973    -0.15100
C3819       C  0.63122504  0.09454998  0.04009497     0.03800
C3820       C  0.63128024  0.08323453  0.03235782    -0.10500
C3821       C  0.62026654  0.08025975  0.02497474    -0.00500
C3822       C  0.60912408  0.08787052  0.02581804    -0.05600
H3823       H  0.61996465  0.11047308  0.04720605     0.06800
H3824       H  0.62012023  0.07170723  0.01892059     0.10200
Br3825     Br  0.58920623  0.08438871  0.05310336    -0.05300
Br3826     Br  0.58257271  0.14218135  0.02600166    -0.02300
Br3827     Br  0.64601244  0.10049878  0.04966729     0.00600
Br3828     Br  0.59433037  0.08310962  0.01570384    -0.03800
C3829       C  0.54747514  0.05935401  0.12706145    -0.11200
C3830       C  0.53996698  0.06945517  0.13231622     0.04300
C3831       C  0.53463213  0.07882756  0.12416155    -0.11800
C3832       C  0.53681967  0.07853168  0.11078140     0.19100
C3833       C  0.54421770  0.06834598  0.10553823    -0.08800
C3834       C  0.54918930  0.05877454  0.11362515    -0.01800
H3835       H  0.52916141  0.08671498  0.12834604     0.05600
C3836       C  0.53345987  0.09005037  0.10295469     0.21100
H3837       H  0.55510214  0.05122630  0.10941757     0.10800
C3838       C  0.53906570  0.10189067  0.10644200    -0.15100
C3839       C  0.53830447  0.11256514  0.09830994     0.03800
C3840       C  0.53214639  0.11142964  0.08620863    -0.10500
C3841       C  0.52529412  0.10005097  0.08331414    -0.00500
C3842       C  0.52575344  0.08942109  0.09171297    -0.05600
H3843       H  0.54456865  0.10269887  0.11530910     0.06800
H3844       H  0.52013891  0.09918079  0.07425263     0.10200
Br3845     Br  0.54934613  0.06781105  0.08772878    -0.05300
Br3846     Br  0.53666164  0.07107358  0.15046648    -0.02300
Br3847     Br  0.54593637  0.12845247  0.10426915     0.00600
Br3848     Br  0.51581965  0.07431945  0.08744951    -0.03800
C3849       C  0.58860556  0.22666795  0.20891795    -0.11200
C3850       C  0.57783986  0.22558129  0.21726323     0.04300
C3851       C  0.57774084  0.23225050  0.22907392    -0.11800
C3852       C  0.58822745  0.23997849  0.23282284     0.19100
C3853       C  0.59869148  0.24151145  0.22431662    -0.08800
C3854       C  0.59874787  0.23502577  0.21245446    -0.01800
H3855       H  0.56961551  0.23109191  0.23554756     0.05600
C3856       C  0.58867928  0.24547847  0.24603058     0.21100
H3857       H  0.60713624  0.23599602  0.20629310     0.10800
C3858       C  0.59483933  0.23845200  0.25578779    -0.15100
C3859       C  0.59657830  0.24370038  0.26814946     0.03800
C3860       C  0.59226961  0.25641552  0.27090041    -0.10500
C3861       C  0.58538931  0.26309133  0.26123180    -0.00500
C3862       C  0.58357913  0.25772796  0.24891737    -0.05600
H3863       H  0.59855131  0.22888442  0.25368253     0.06800
H3864       H  0.58181648  0.27276175  0.26305303     0.10200
Br3865     Br  0.61349541  0.25174306  0.22884900    -0.05300
Br3866     Br  0.56300472  0.21516683  0.21324176    -0.02300
Br3867     Br  0.60491619  0.23282606  0.28061167     0.00600
Br3868     Br  0.57457064  0.26764430  0.23615533    -0.03800
C3869       C  0.66698103  0.12433570  0.20960467    -0.11200
C3870       C  0.66827693  0.13500066  0.20124379     0.04300
C3871       C  0.65921139  0.14494821  0.20160186    -0.11800
C3872       C  0.64865289  0.14438945  0.21000400     0.19100
C3873       C  0.64762632  0.13408608  0.21877595    -0.08800
C3874       C  0.65690850  0.12422177  0.21867779    -0.01800
H3875       H  0.66000849  0.15283496  0.19478285     0.05600
C3876       C  0.63801115  0.15358692  0.20785338     0.21100
H3877       H  0.65578245  0.11606466  0.22511482     0.10800
C3878       C  0.62756220  0.14949567  0.20028089    -0.15100
C3879       C  0.61869682  0.15838202  0.19536942     0.03800
C3880       C  0.62023170  0.17168419  0.19806005    -0.10500
C3881       C  0.63038870  0.17568971  0.20617683    -0.00500
C3882       C  0.63920674  0.16672390  0.21113562    -0.05600
H3883       H  0.62676055  0.13941157  0.19751808     0.06800
H3884       H  0.63164395  0.18585004  0.20842563     0.10200
Br3885     Br  0.63333433  0.13283017  0.23045140    -0.05300
Br3886     Br  0.68200912  0.13636843  0.18884651    -0.02300
Br3887     Br  0.60578323  0.15183628  0.18373875     0.00600
Br3888     Br  0.65292603  0.17273944  0.22207091    -0.03800
C3889       C  0.56696177  0.18837151  0.15031809    -0.11200
C3890       C  0.55924527  0.19710867  0.14319708     0.04300
C3891       C  0.55310267  0.19299401  0.13183830    -0.11800
C3892       C  0.55439104  0.18024413  0.12743075     0.19100
C3893       C  0.56135266  0.17131172  0.13492067    -0.08800
C3894       C  0.56745021  0.17536962  0.14629255    -0.01800
H3895       H  0.54769172  0.19989920  0.12615098     0.05600
C3896       C  0.55003736  0.17682350  0.11425369     0.21100
H3897       H  0.57331889  0.16847676  0.15152049     0.10800
C3898       C  0.55770493  0.18063625  0.10378409    -0.15100
C3899       C  0.55525978  0.17596285  0.09132861     0.03800
C3900       C  0.54479320  0.16745827  0.08916510    -0.10500
C3901       C  0.53657627  0.16444183  0.09954311    -0.00500
C3902       C  0.53919324  0.16892784  0.11202177    -0.05600
H3903       H  0.56601018  0.18681560  0.10542288     0.06800
H3904       H  0.52853790  0.15786757  0.09814062     0.10200
Br3905     Br  0.56391053  0.15379312  0.12928902    -0.05300
Br3906     Br  0.55683107  0.21480664  0.14825281    -0.02300
Br3907     Br  0.56669858  0.18139431  0.07782468     0.00600
Br3908     Br  0.52815550  0.16339973  0.12579407    -0.03800
C3909       C  0.62450968  0.20602167  0.14570521    -0.11200
C3910       C  0.63440279  0.21543693  0.14550102     0.04300
C3911       C  0.64390663  0.21493669  0.13587960    -0.11800
C3912       C  0.64402613  0.20496205  0.12662758     0.19100
C3913       C  0.63396028  0.19578844  0.12666818    -0.08800
C3914       C  0.62421813  0.19658141  0.13592475    -0.01800
H3915       H  0.65181582  0.22180241  0.13619705     0.05600
C3916       C  0.65602081  0.20258690  0.11917667     0.21100
H3917       H  0.61677829  0.18920369  0.13593859     0.10800
C3918       C  0.66721570  0.19969557  0.12617109    -0.15100
C3919       C  0.67851475  0.19575249  0.12001142     0.03800
C3920       C  0.67881829  0.19456224  0.10639923    -0.10500
C3921       C  0.66769900  0.19793889  0.09932450    -0.00500
C3922       C  0.65640762  0.20209215  0.10558564    -0.05600
H3923       H  0.66701642  0.20002550  0.13662366     0.06800
H3924       H  0.66777638  0.19734989  0.08888949     0.10200
Br3925     Br  0.63401187  0.18076842  0.11573124    -0.05300
Br3926     Br  0.63662726  0.22804208  0.15895948    -0.02300
Br3927     Br  0.69267550  0.19124456  0.13113826     0.00600
Br3928     Br  0.64191221  0.20720731  0.09522544    -0.03800
C3929       C  0.99637534  0.15503539  0.45914677    -0.11200
C3930       C  0.00650865  0.14640510  0.46239760     0.04300
C3931       C  0.01331440  0.14805988  0.47396901    -0.11800
C3932       C  0.01034526  0.15817639  0.48246382     0.19100
C3933       C  0.00104416  0.16736503  0.47881628    -0.08800
C3934       C  0.99409980  0.16570541  0.46732072    -0.01800
H3935       H  0.02062049  0.14105906  0.47663347     0.05600
C3936       C  0.01626349  0.15819619  0.49549097     0.21100
H3937       H  0.98663511  0.17264010  0.46496863     0.10800
C3938       C  0.02957768  0.16028923  0.49684082    -0.15100
C3939       C  0.03568215  0.15885209  0.50883351     0.03800
C3940       C  0.02838071  0.15521319  0.51979181    -0.10500
C3941       C  0.01501273  0.15335253  0.51840783    -0.00500
C3942       C  0.00896141  0.15476004  0.50642208    -0.05600
H3943       H  0.03531132  0.16264611  0.48842899     0.06800
H3944       H  0.00927532  0.15040072  0.52662516     0.10200
Br3945     Br  0.99738941  0.18217726  0.48938352    -0.05300
Br3946     Br  0.01133291  0.13172688  0.45207052    -0.02300
Br3947     Br  0.05415403  0.16068929  0.50917286     0.00600
Br3948     Br  0.99087597  0.15078552  0.50527294    -0.03800
C3949       C  0.08681554  0.22169932  0.71484642    -0.11200
C3950       C  0.09445886  0.23289681  0.71693861     0.04300
C3951       C  0.09408598  0.23920682  0.72888061    -0.11800
C3952       C  0.08633186  0.23459066  0.73891351     0.19100
C3953       C  0.07837716  0.22378323  0.73677691    -0.08800
C3954       C  0.07859542  0.21749392  0.72480886    -0.01800
H3955       H  0.10015324  0.24760823  0.73047908     0.05600
C3956       C  0.08715937  0.24099574  0.75163281     0.21100
H3957       H  0.07268796  0.20893770  0.72351237     0.10800
C3958       C  0.08069042  0.25270421  0.75359959    -0.15100
C3959       C  0.08255394  0.25990466  0.76491735     0.03800
C3960       C  0.09100439  0.25526853  0.77464720    -0.10500
C3961       C  0.09713394  0.24327095  0.77271348    -0.00500
C3962       C  0.09538186  0.23623715  0.76130572    -0.05600
H3963       H  0.07451497  0.25649327  0.74605838     0.06800
H3964       H  0.10372010  0.23951525  0.77990968     0.10200
Br3965     Br  0.06743372  0.21703913  0.75006997    -0.05300
Br3966     Br  0.10578756  0.24017523  0.70419279    -0.02300
Br3967     Br  0.07400286  0.27636032  0.76570443     0.00600
Br3968     Br  0.10515436  0.22065468  0.75892758    -0.03800
C3969       C  0.06693356  0.18787014  0.65185819    -0.11200
C3970       C  0.06096443  0.19741716  0.64414952     0.04300
C3971       C  0.05661421  0.19427650  0.63169283    -0.11800
C3972       C  0.05816139  0.18173950  0.62675913     0.19100
C3973       C  0.06344068  0.17207429  0.63467565    -0.08800
C3974       C  0.06762281  0.17513540  0.64713241    -0.01800
H3975       H  0.05243733  0.20173262  0.62567554     0.05600
C3976       C  0.05546504  0.17898890  0.61301556     0.21100
H3977       H  0.07224458  0.16766625  0.65280191     0.10800
C3978       C  0.06572672  0.17945809  0.60423771    -0.15100
C3979       C  0.06436131  0.17466896  0.59166394     0.03800
C3980       C  0.05239774  0.16935802  0.58761246    -0.10500
C3981       C  0.04188198  0.16978306  0.59624888    -0.00500
C3982       C  0.04337567  0.17441783  0.60887309    -0.05600
H3983       H  0.07506754  0.18299435  0.60740822     0.06800
H3984       H  0.03260971  0.16579037  0.59346398     0.10200
Br3985     Br  0.06602879  0.15475841  0.62847128    -0.05300
Br3986     Br  0.05856347  0.21485253  0.65003651    -0.02300
Br3987     Br  0.07948761  0.17522948  0.58096577     0.00600
Br3988     Br  0.02897978  0.17337730  0.62045469    -0.03800
C3989       C  0.03553164  0.00566250  0.65570426    -0.11200
C3990       C  0.02872450  0.00514781  0.66753093     0.04300
C3991       C  0.01702136  0.99832627  0.66827420    -0.11800
C3992       C  0.01200581  0.99183970  0.65746444     0.19100
C3993       C  0.01910557  0.99180202  0.64589956    -0.08800
C3994       C  0.03068887  0.99864938  0.64510436    -0.01800
H3995       H  0.01170049  0.99824980  0.67726759     0.05600
C3996       C  0.99914992  0.98557539  0.65807302     0.21100
H3997       H  0.03572953  0.99876670  0.63595326     0.10800
C3998       C  0.98913700  0.99046245  0.65039832    -0.15100
C3999       C  0.97739394  0.98386833  0.64915038     0.03800
C4000       C  0.97542132  0.97211474  0.65587642    -0.10500
C4001       C  0.98519134  0.96779186  0.66429978    -0.00500
C4002       C  0.99697822  0.97435277  0.66537544    -0.05600
H4003       H  0.99068675  0.99923034  0.64490786     0.06800
H4004       H  0.98395564  0.95888581  0.66963052     0.10200
Br4005     Br  0.01340405  0.98251703  0.63085493    -0.05300
Br4006     Br  0.03486638  0.01325199  0.68305416    -0.02300
Br4007     Br  0.96492667  0.99141223  0.63767525     0.00600
Br4008     Br  0.01017039  0.96699188  0.67608304    -0.03800
C4009       C  0.04491140  0.06344499  0.62900821    -0.11200
C4010       C  0.03640115  0.06113666  0.61857692     0.04300
C4011       C  0.03351399  0.07113101  0.60998349    -0.11800
C4012       C  0.03866915  0.08350717  0.61188256     0.19100
C4013       C  0.04555266  0.08623801  0.62328623    -0.08800
C4014       C  0.04871053  0.07620495  0.63173141    -0.01800
H4015       H  0.02786230  0.06906312  0.60141662     0.05600
C4016       C  0.03884947  0.09267226  0.60100976     0.21100
H4017       H  0.05495468  0.07825183  0.63988112     0.10800
C4018       C  0.02792166  0.10004409  0.59795759    -0.15100
C4019       C  0.02835744  0.10929459  0.58806032     0.03800
C4020       C  0.03991508  0.11110161  0.58095592    -0.10500
C4021       C  0.05059282  0.10319259  0.58379717    -0.00500
C4022       C  0.05016218  0.09413991  0.59368858    -0.05600
H4023       H  0.01915009  0.09883768  0.60351720     0.06800
H4024       H  0.05954414  0.10421997  0.57849528     0.10200
Br4025     Br  0.05176771  0.10332968  0.62702229    -0.05300
Br4026     Br  0.02862375  0.04454401  0.61546919    -0.02300
Br4027     Br  0.01305245  0.11936695  0.58531632     0.00600
Br4028     Br  0.06545517  0.08415029  0.59699036    -0.03800
C4029       C  0.15909176  0.06280236  0.69695751    -0.11200
C4030       C  0.14921062  0.05991558  0.70598434     0.04300
C4031       C  0.13729928  0.05514819  0.70167965    -0.11800
C4032       C  0.13505904  0.05284136  0.68857152     0.19100
C4033       C  0.14506739  0.05490134  0.67965060    -0.08800
C4034       C  0.15692822  0.05985448  0.68385579    -0.01800
H4035       H  0.12965837  0.05337157  0.70858945     0.05600
C4036       C  0.12208747  0.04874197  0.68426148     0.21100
H4037       H  0.16429741  0.06187651  0.67672963     0.10800
C4038       C  0.11233780  0.05802284  0.68296822    -0.15100
C4039       C  0.10033865  0.05478396  0.67759267     0.03800
C4040       C  0.09800953  0.04196111  0.67326662    -0.10500
C4041       C  0.10761448  0.03255933  0.67539712    -0.00500
C4042       C  0.11952091  0.03585284  0.68087763    -0.05600
H4043       H  0.11422209  0.06793921  0.68581083     0.06800
H4044       H  0.10607013  0.02263978  0.67239281     0.10200
Br4045     Br  0.14270490  0.05170494  0.66154091    -0.05300
Br4046     Br  0.15093310  0.06240803  0.72428354    -0.02300
Br4047     Br  0.08796996  0.06855959  0.67620107     0.00600
Br4048     Br  0.13218114  0.02255142  0.68330276    -0.03800
C4049       C  0.16171547  0.11959435  0.71479736    -0.11200
C4050       C  0.15084505  0.11760815  0.72282154     0.04300
C4051       C  0.14051335  0.12637167  0.72244613    -0.11800
C4052       C  0.14083553  0.13704206  0.71415549     0.19100
C4053       C  0.15196944  0.13940795  0.70677528    -0.08800
C4054       C  0.16225764  0.13076267  0.70716339    -0.01800
H4055       H  0.13192981  0.12448786  0.72810942     0.05600
C4056       C  0.12911126  0.14484856  0.71205994     0.21100
H4057       H  0.17053336  0.13252743  0.70101890     0.10800
C4058       C  0.12650087  0.15544579  0.72008783    -0.15100
C4059       C  0.11702845  0.16447563  0.71664760     0.03800
C4060       C  0.11020296  0.16298508  0.70492484    -0.10500
C4061       C  0.11193697  0.15165111  0.69766584    -0.00500
C4062       C  0.12133500  0.14263519  0.70113221    -0.05600
H4063       H  0.13224110  0.15701743  0.72869746     0.06800
H4064       H  0.10672083  0.15027875  0.68869584     0.10200
Br4065     Br  0.15325557  0.15385088  0.69531119    -0.05300
Br4066     Br  0.14879805  0.10252088  0.73335562    -0.02300
Br4067     Br  0.11386466  0.17866836  0.72818816     0.00600
Br4068     Br  0.12402209  0.12799350  0.69004362    -0.03800
C4069       C  0.14149786  0.03208564  0.56668319    -0.11200
C4070       C  0.13138947  0.02315246  0.56428574     0.04300
C4071       C  0.12269200  0.02005496  0.57414717    -0.11800
C4072       C  0.12403543  0.02554130  0.58643564     0.19100
C4073       C  0.13488160  0.03325877  0.58920513    -0.08800
C4074       C  0.14349775  0.03648954  0.57936734    -0.01800
H4075       H  0.11447720  0.01389709  0.57204252     0.05600
C4076       C  0.11310682  0.02506387  0.59552466     0.21100
H4077       H  0.15129874  0.04314799  0.58150953     0.10800
C4078       C  0.11143886  0.01447273  0.60375756    -0.15100
C4079       C  0.10186681  0.01464528  0.61334521     0.03800
C4080       C  0.09370246  0.02556765  0.61462325    -0.10500
C4081       C  0.09511605  0.03583040  0.60586883    -0.00500
C4082       C  0.10472247  0.03568818  0.59648594    -0.05600
H4083       H  0.11791343  0.00628158  0.60303988     0.06800
H4084       H  0.08894616  0.04425924  0.60652569     0.10200
Br4085     Br  0.13760719  0.04051075  0.60605609    -0.05300
Br4086     Br  0.12877731  0.01496225  0.54782898    -0.02300
Br4087     Br  0.10124564  0.00012391  0.62482591     0.00600
Br4088     Br  0.10644115  0.05057014  0.58556201    -0.03800
C4089       C  0.08126965  0.12456782  0.53598277    -0.11200
C4090       C  0.09413059  0.12589394  0.54048659     0.04300
C4091       C  0.10367880  0.11736301  0.53611136    -0.11800
C4092       C  0.10074360  0.10752348  0.52726223     0.19100
C4093       C  0.08826678  0.10682492  0.52199190    -0.08800
C4094       C  0.07867041  0.11529248  0.52633342    -0.01800
H4095       H  0.11328140  0.11788738  0.54025755     0.05600
C4096       C  0.10996907  0.09673807  0.52576812     0.21100
H4097       H  0.06898486  0.11423090  0.52250529     0.10800
C4098       C  0.10809034  0.08577231  0.53343604    -0.15100
C4099       C  0.11747471  0.07613398  0.53415129     0.03800
C4100       C  0.12897363  0.07729179  0.52695583    -0.10500
C4101       C  0.13047813  0.08785149  0.51857380    -0.00500
C4102       C  0.12111768  0.09765084  0.51806671    -0.05600
H4103       H  0.09949529  0.08498448  0.53934466     0.06800
H4104       H  0.13927431  0.08888042  0.51301615     0.10200
Br4105     Br  0.08382038  0.09399876  0.50934299    -0.05300
Br4106     Br  0.09926930  0.13816294  0.55346024    -0.02300
Br4107     Br  0.11412262  0.06171186  0.54531919     0.00600
Br4108     Br  0.12412976  0.11234399  0.50724997    -0.03800
C4109       C  0.26495451  0.27528700  0.58578106    -0.11200
C4110       C  0.25459181  0.27128372  0.59376128     0.04300
C4111       C  0.24887444  0.25917902  0.59174795    -0.11800
C4112       C  0.25330448  0.25089086  0.58201064     0.19100
C4113       C  0.26320188  0.25499990  0.57376078    -0.08800
C4114       C  0.26885998  0.26711952  0.57561018    -0.01800
H4115       H  0.24122418  0.25599342  0.59812479     0.05600
C4116       C  0.24821279  0.23759926  0.58141711     0.21100
H4117       H  0.27672750  0.26990857  0.56932376     0.10800
C4118       C  0.23702824  0.23496590  0.57429372    -0.15100
C4119       C  0.23120841  0.22274212  0.57476720     0.03800
C4120       C  0.23645501  0.21300664  0.58282483    -0.10500
C4121       C  0.24817858  0.21554474  0.58925996    -0.00500
C4122       C  0.25406447  0.22768467  0.58855749    -0.05600
H4123       H  0.23269023  0.24252593  0.56851935     0.06800
H4124       H  0.25255648  0.20824350  0.59531942     0.10200
Br4125     Br  0.26978725  0.24405071  0.56034672    -0.05300
Br4126     Br  0.24799045  0.28133221  0.60791774    -0.02300
Br4127     Br  0.21626412  0.22016458  0.56407324     0.00600
Br4128     Br  0.26983721  0.23053377  0.59791454    -0.03800
C4129       C  0.18040840  0.19286894  0.61518512    -0.11200
C4130       C  0.16757713  0.19118743  0.61071922     0.04300
C4131       C  0.15719309  0.19343769  0.61908442    -0.11800
C4132       C  0.15928010  0.19748983  0.63183335     0.19100
C4133       C  0.17197146  0.19974011  0.63612173    -0.08800
C4134       C  0.18235603  0.19745481  0.62784774    -0.01800
H4135       H  0.14742969  0.19167149  0.61573305     0.05600
C4136       C  0.14828439  0.19807950  0.64089840     0.21100
H4137       H  0.19204310  0.19890871  0.63154070     0.10800
C4138       C  0.14773299  0.18898455  0.65086623    -0.15100
C4139       C  0.13747296  0.18889118  0.65956368     0.03800
C4140       C  0.12744985  0.19805038  0.65838792    -0.10500
C4141       C  0.12810682  0.20733659  0.64854566    -0.00500
C4142       C  0.13834938  0.20729375  0.63970997    -0.05600
H4143       H  0.15533400  0.18185414  0.65183832     0.06800
H4144       H  0.12043960  0.21437288  0.64747015     0.10200
Br4145     Br  0.17560542  0.20577352  0.65328892    -0.05300
Br4146     Br  0.16335979  0.18575720  0.59348808    -0.02300
Br4147     Br  0.13798442  0.17625813  0.67308702     0.00600
Br4148     Br  0.13835230  0.21989418  0.62617548    -0.03800
C4149       C  0.20477894  0.14703359  0.56905296    -0.11200
C4150       C  0.19198434  0.14217844  0.56812538     0.04300
C4151       C  0.18973392  0.13000699  0.56263017    -0.11800
C4152       C  0.19988752  0.12255753  0.55772074     0.19100
C4153       C  0.21245009  0.12769931  0.55770567    -0.08800
C4154       C  0.21483241  0.13977860  0.56341322    -0.01800
H4155       H  0.17997200  0.12621773  0.56234105     0.05600
C4156       C  0.19697720  0.10941491  0.55282410     0.21100
H4157       H  0.22467658  0.14331914  0.56374199     0.10800
C4158       C  0.19237302  0.10793907  0.54021937    -0.15100
C4159       C  0.18746172  0.09607007  0.53588296     0.03800
C4160       C  0.18698736  0.08531242  0.54435984    -0.10500
C4161       C  0.19230569  0.08672855  0.55680448    -0.00500
C4162       C  0.19726245  0.09862202  0.56104262    -0.05600
H4163       H  0.19212681  0.11623758  0.53386478     0.06800
H4164       H  0.19216212  0.07869631  0.56348513     0.10200
Br4165     Br  0.22659981  0.11844553  0.55017116    -0.05300
Br4166     Br  0.17699403  0.15132397  0.57415404    -0.02300
Br4167     Br  0.18082690  0.09583164  0.51856200     0.00600
Br4168     Br  0.20366148  0.09992462  0.57838081    -0.03800
C4169       C  0.22514398  0.15506476  0.62834660    -0.11200
C4170       C  0.22061147  0.15815399  0.64088355     0.04300
C4171       C  0.22001988  0.14855253  0.65031264    -0.11800
C4172       C  0.22411620  0.13589894  0.64772260     0.19100
C4173       C  0.22949577  0.13302882  0.63558259    -0.08800
C4174       C  0.23000058  0.14257008  0.62605339    -0.01800
H4175       H  0.21579571  0.15086230  0.65960220     0.05600
C4176       C  0.22117924  0.12566332  0.65724847     0.21100
H4177       H  0.23362737  0.13997254  0.61659594     0.10800
C4178       C  0.21275066  0.11564205  0.65366016    -0.15100
C4179       C  0.20799098  0.10691724  0.66275906     0.03800
C4180       C  0.21134762  0.10843343  0.67589601    -0.10500
C4181       C  0.22040371  0.11799726  0.67933381    -0.00500
C4182       C  0.22534534  0.12653679  0.67015599    -0.05600
H4183       H  0.20938443  0.11493970  0.64378068     0.06800
H4184       H  0.22334791  0.11914316  0.68930647     0.10200
Br4185     Br  0.23590789  0.11612170  0.63142306    -0.05300
Br4186     Br  0.21456631  0.17501381  0.64592068    -0.02300
Br4187     Br  0.19623343  0.09392146  0.65654326     0.00600
Br4188     Br  0.23751071  0.13938735  0.67580500    -0.03800
C4189       C  0.49122488  0.15478849  0.95983422    -0.11200
C4190       C  0.50366811  0.14922801  0.96110672     0.04300
C4191       C  0.50985250  0.14916712  0.97313664    -0.11800
C4192       C  0.50391363  0.15446624  0.98408801     0.19100
C4193       C  0.49188934  0.16066207  0.98272022    -0.08800
C4194       C  0.48569965  0.16082157  0.97069983    -0.01800
H4195       H  0.51922779  0.14460950  0.97404585     0.05600
C4196       C  0.51001984  0.15280869  0.99694622     0.21100
H4197       H  0.47621272  0.16517425  0.97003384     0.10800
C4198       C  0.51412063  0.16368807  0.00399069    -0.15100
C4199       C  0.51934437  0.16241077  0.01641909     0.03800
C4200       C  0.52055365  0.15001457  0.02199698    -0.10500
C4201       C  0.51650912  0.13917681  0.01486355    -0.00500
C4202       C  0.51140438  0.14044910  0.00245954    -0.05600
H4203       H  0.51311728  0.17323696  0.99984060     0.06800
H4204       H  0.51753958  0.12956386  0.01886122     0.10200
Br4205     Br  0.48303378  0.16815221  0.99718501    -0.05300
Br4206     Br  0.51283506  0.14132681  0.94704004    -0.02300
Br4207     Br  0.52396424  0.17797851  0.02543536     0.00600
Br4208     Br  0.50626034  0.12492555  0.99363953    -0.03800
C4209       C  0.41653774  0.22995924  0.77199527    -0.11200
C4210       C  0.42786634  0.23001740  0.76437347     0.04300
C4211       C  0.42829535  0.23734790  0.75304201    -0.11800
C4212       C  0.41768496  0.24479186  0.74919174     0.19100
C4213       C  0.40668348  0.24534258  0.75710037    -0.08800
C4214       C  0.40617834  0.23798213  0.76837211    -0.01800
H4215       H  0.43687280  0.23706741  0.74706764     0.05600
C4216       C  0.41793360  0.25126674  0.73652105     0.21100
H4217       H  0.39743604  0.23824358  0.77409848     0.10800
C4218       C  0.41102024  0.24575934  0.72627088    -0.15100
C4219       C  0.41067653  0.25168222  0.71416486     0.03800
C4220       C  0.41733789  0.26347786  0.71216773    -0.10500
C4221       C  0.42464252  0.26870197  0.72241633    -0.00500
C4222       C  0.42494453  0.26271371  0.73451081    -0.05600
H4223       H  0.40577446  0.23681141  0.72774534     0.06800
H4224       H  0.42976113  0.27775500  0.72120092     0.10200
Br4225     Br  0.39209072  0.25593221  0.75280633    -0.05300
Br4226     Br  0.44318660  0.22063757  0.76891236    -0.02300
Br4227     Br  0.40102032  0.24291561  0.70092717     0.00600
Br4228     Br  0.43445501  0.27081717  0.74822347    -0.03800
C4229       C  0.43470998  0.19525342  0.83524654    -0.11200
C4230       C  0.44072429  0.18325622  0.83782159     0.04300
C4231       C  0.44582260  0.18080410  0.85009521    -0.11800
C4232       C  0.44484510  0.18996396  0.86003887     0.19100
C4233       C  0.43927554  0.20206287  0.85742456    -0.08800
C4234       C  0.43440632  0.20466310  0.84510235    -0.01800
H4235       H  0.45014397  0.17147358  0.85205032     0.05600
C4236       C  0.44887449  0.18621561  0.87321146     0.21100
H4237       H  0.42975965  0.21389138  0.84345140     0.10800
C4238       C  0.46204730  0.18513416  0.87612016    -0.15100
C4239       C  0.46616324  0.17973669  0.88781433     0.03800
C4240       C  0.45694999  0.17518045  0.89682727    -0.10500
C4241       C  0.44375978  0.17706465  0.89416109    -0.00500
C4242       C  0.43969624  0.18239189  0.88244980    -0.05600
H4243       H  0.46916262  0.18814007  0.86907829     0.06800
H4244       H  0.43650056  0.17361500  0.90084010     0.10200
Br4245     Br  0.43757440  0.21508253  0.87053114    -0.05300
Br4246     Br  0.44211707  0.16964884  0.82526215    -0.02300
Br4247     Br  0.48447379  0.17878455  0.89067582     0.00600
Br4248     Br  0.42149081  0.18307473  0.87897876    -0.03800
C4249       C  0.28564070  0.07866885  0.75917715    -0.11200
C4250       C  0.27665827  0.06853450  0.76123303     0.04300
C4251       C  0.26481353  0.06855626  0.75469430    -0.11800
C4252       C  0.26173876  0.07840629  0.74599542     0.19100
C4253       C  0.27083809  0.08813622  0.74342691    -0.08800
C4254       C  0.28265555  0.08820282  0.74996445    -0.01800
H4255       H  0.25785694  0.06095288  0.75655770     0.05600
C4256       C  0.24871171  0.07879527  0.74025924     0.21100
H4257       H  0.28933023  0.09605829  0.74814573     0.10800
C4258       C  0.23893244  0.08548871  0.74676082    -0.15100
C4259       C  0.22651603  0.08644176  0.74152547     0.03800
C4260       C  0.22371333  0.08051089  0.72951297    -0.10500
C4261       C  0.23354131  0.07353053  0.72320835    -0.00500
C4262       C  0.24596005  0.07270180  0.72845657    -0.05600
H4263       H  0.24103338  0.09012637  0.75591553     0.06800
H4264       H  0.23171934  0.06905262  0.71392239     0.10200
Br4265     Br  0.26731397  0.10175048  0.73138506    -0.05300
Br4266     Br  0.27979652  0.05428577  0.77263590    -0.02300
Br4267     Br  0.21401727  0.09593159  0.75143589     0.00600
Br4268     Br  0.25900465  0.06353425  0.71903267    -0.03800
C4269       C  0.34610882  0.11843593  0.77902548    -0.11200
C4270       C  0.35494986  0.11930644  0.76867456     0.04300
C4271       C  0.36428162  0.12916797  0.76860931    -0.11800
C4272       C  0.36494630  0.13817257  0.77872684     0.19100
C4273       C  0.35600869  0.13743773  0.78889607    -0.08800
C4274       C  0.34676293  0.12762878  0.78900804    -0.01800
H4275       H  0.37117908  0.12968294  0.76077607     0.05600
C4276       C  0.37500824  0.14829548  0.77883322     0.21100
H4277       H  0.34005537  0.12717167  0.79701270     0.10800
C4278       C  0.37230765  0.16029124  0.77324215    -0.15100
C4279       C  0.38030660  0.17096871  0.77555706     0.03800
C4280       C  0.39120365  0.16971218  0.78373580    -0.10500
C4281       C  0.39448721  0.15736013  0.78831673    -0.00500
C4282       C  0.38645071  0.14671737  0.78597874    -0.05600
H4283       H  0.36358739  0.16150581  0.76758288     0.06800
H4284       H  0.40282803  0.15611693  0.79450834     0.10200
Br4285     Br  0.35615444  0.14958481  0.80294074    -0.05300
Br4286     Br  0.35541711  0.10686859  0.75490862    -0.02300
Br4287     Br  0.37556086  0.18696407  0.76746114     0.00600
Br4288     Br  0.39084591  0.13044389  0.79363926    -0.03800
C4289       C  0.53923147  0.97710173  0.82923788    -0.11200
C4290       C  0.53603643  0.98817616  0.83668846     0.04300
C4291       C  0.52408509  0.99426531  0.83496496    -0.11800
C4292       C  0.51514658  0.98968490  0.82589657     0.19100
C4293       C  0.51853473  0.97921860  0.81792571    -0.08800
C4294       C  0.53044700  0.97301089  0.81964217    -0.01800
H4295       H  0.52159010  0.00246325  0.84099772     0.05600
C4296       C  0.50215816  0.99566261  0.82542720     0.21100
H4297       H  0.53264032  0.96468341  0.81368234     0.10800
C4298       C  0.50053349  0.00759746  0.81930437    -0.15100
C4299       C  0.48874484  0.01423513  0.81993992     0.03800
C4300       C  0.47823885  0.00891098  0.82693085    -0.10500
C4301       C  0.47987907  0.99672314  0.83273518    -0.00500
C4302       C  0.49167046  0.99013795  0.83204050    -0.05600
H4303       H  0.50861996  0.01194651  0.81429617     0.06800
H4304       H  0.47205965  0.99240911  0.83816816     0.10200
Br4305     Br  0.50704386  0.97298606  0.80477477    -0.05300
Br4306     Br  0.54715907  0.99553397  0.84962856    -0.02300
Br4307     Br  0.48821274  0.03085767  0.81174343     0.00600
Br4308     Br  0.49327006  0.97394369  0.84089499    -0.03800
C4309       C  0.47294744  0.11529470  0.89995496    -0.11200
C4310       C  0.46786196  0.10297354  0.90269463     0.04300
C4311       C  0.46766143  0.09345902  0.89312979    -0.11800
C4312       C  0.47262672  0.09590115  0.88078209     0.19100
C4313       C  0.47838760  0.10798343  0.87824314    -0.08800
C4314       C  0.47855788  0.11757814  0.88784364    -0.01800
H4315       H  0.46328668  0.08418109  0.89524285     0.05600
C4316       C  0.47072314  0.08595260  0.87063195     0.21100
H4317       H  0.48256178  0.12700230  0.88565823     0.10800
C4318       C  0.46244568  0.08857180  0.86021454    -0.15100
C4319       C  0.45833569  0.07867802  0.85188082     0.03800
C4320       C  0.46229368  0.06580494  0.85417347    -0.10500
C4321       C  0.47126877  0.06343372  0.86407457    -0.00500
C4322       C  0.47556062  0.07335120  0.87217162    -0.05600
H4323       H  0.45865337  0.09824397  0.85893929     0.06800
H4324       H  0.47471538  0.05370136  0.86579327     0.10200
Br4325     Br  0.48604171  0.11177418  0.86184312    -0.05300
Br4326     Br  0.46122164  0.09858557  0.91942602    -0.02300
Br4327     Br  0.44656721  0.08332927  0.83833801     0.00600
Br4328     Br  0.48785811  0.06914108  0.88537010    -0.03800
C4329       C  0.41105795  0.04005416  0.81158523    -0.11200
C4330       C  0.40688230  0.05279216  0.80874380     0.04300
C4331       C  0.39451377  0.05484811  0.80366893    -0.11800
C4332       C  0.38606488  0.04451601  0.80134576     0.19100
C4333       C  0.39032590  0.03183126  0.80355225    -0.08800
C4334       C  0.40271435  0.02967885  0.80857433    -0.01800
H4335       H  0.39127810  0.06465073  0.80192058     0.05600
C4336       C  0.37257101  0.04743572  0.79762397     0.21100
H4337       H  0.40559547  0.01983268  0.81062202     0.10800
C4338       C  0.36941108  0.04923962  0.78461197    -0.15100
C4339       C  0.35734417  0.05425459  0.78103652     0.03800
C4340       C  0.34831451  0.05789021  0.79065225    -0.10500
C4341       C  0.35117902  0.05500435  0.80360354    -0.00500
C4342       C  0.36316473  0.04982760  0.80710657    -0.05600
H4343       H  0.37651869  0.04713923  0.77723677     0.06800
H4344       H  0.34441036  0.05751688  0.81116318     0.10200
Br4345     Br  0.37928885  0.01725908  0.80042999    -0.05300
Br4346     Br  0.41712769  0.06799301  0.81187305    -0.02300
Br4347     Br  0.35394458  0.05592474  0.76289838     0.00600
Br4348     Br  0.36666243  0.04697345  0.82506016    -0.03800
C4349       C  0.23970719  0.27302751  0.90937061    -0.11200
C4350       C  0.25246023  0.27152710  0.90471555     0.04300
C4351       C  0.25863366  0.25950494  0.90562005    -0.11800
C4352       C  0.25242539  0.24888086  0.91125208     0.19100
C4353       C  0.24016899  0.25058814  0.91682198    -0.08800
C4354       C  0.23392527  0.26256756  0.91587115    -0.01800
H4355       H  0.26818626  0.25831914  0.90152666     0.05600
C4356       C  0.25835982  0.23590323  0.91003101     0.21100
H4357       H  0.22422528  0.26347219  0.91967045     0.10800
C4358       C  0.26724345  0.23157298  0.91927087    -0.15100
C4359       C  0.27369089  0.21972453  0.91770621     0.03800
C4360       C  0.27126777  0.21197621  0.90666342    -0.10500
C4361       C  0.26200611  0.21624155  0.89768364    -0.00500
C4362       C  0.25566431  0.22807180  0.89924912    -0.05600
H4363       H  0.26930285  0.23752709  0.92764097     0.06800
H4364       H  0.25998263  0.21057451  0.88911098     0.10200
Br4365     Br  0.23137182  0.23661727  0.92520705    -0.05300
Br4366     Br  0.26206871  0.28543644  0.89712510    -0.02300
Br4367     Br  0.28548283  0.21473647  0.93109986     0.00600
Br4368     Br  0.24376328  0.23344692  0.88610467    -0.03800
C4369       C  0.37676010  0.20885846  0.82995147    -0.11200
C4370       C  0.37847006  0.21387067  0.84253683     0.04300
C4371       C  0.36841795  0.21287528  0.85153446    -0.11800
C4372       C  0.35671559  0.20680860  0.84826712     0.19100
C4373       C  0.35483209  0.20239521  0.83552898    -0.08800
C4374       C  0.36478368  0.20346415  0.82655194    -0.01800
H4375       H  0.36991249  0.21638263  0.86128220     0.05600
C4376       C  0.34683824  0.20441662  0.85831613     0.21100
H4377       H  0.36328025  0.19961009  0.81693160     0.10800
C4378       C  0.33460760  0.21005856  0.85706669    -0.15100
C4379       C  0.32447338  0.20657424  0.86526471     0.03800
C4380       C  0.32651628  0.19727754  0.87504945    -0.10500
C4381       C  0.33903025  0.19234179  0.87685061    -0.00500
C4382       C  0.34914108  0.19580186  0.86858107    -0.05600
H4383       H  0.33283135  0.21691431  0.84938084     0.06800
H4384       H  0.34082957  0.18523500  0.88429501     0.10200
Br4385     Br  0.33926985  0.19387183  0.83003861    -0.05300
Br4386     Br  0.39458319  0.22095196  0.84847022    -0.02300
Br4387     Br  0.30816804  0.21498390  0.86251916     0.00600
Br4388     Br  0.36562416  0.18769358  0.87111699    -0.03800
C4389       C  0.28427519  0.15478951  0.86138389    -0.11200
C4390       C  0.28920038  0.15764043  0.84899149     0.04300
C4391       C  0.28907376  0.14814189  0.83938186    -0.11800
C4392       C  0.28430933  0.13572868  0.84193404     0.19100
C4393       C  0.27858239  0.13315940  0.85395609    -0.08800
C4394       C  0.27842364  0.14273141  0.86351844    -0.01800
H4395       H  0.29352846  0.15017413  0.83014914     0.05600
C4396       C  0.28775107  0.12517853  0.83296629     0.21100
H4397       H  0.27460790  0.14038071  0.87295431     0.10800
C4398       C  0.29796347  0.11702265  0.83643350    -0.15100
C4399       C  0.30320268  0.10825361  0.82761301     0.03800
C4400       C  0.29814239  0.10751126  0.81495672    -0.10500
C4401       C  0.28750071  0.11534203  0.81170287    -0.00500
C4402       C  0.28231169  0.12413349  0.82058532    -0.05600
H4403       H  0.30231588  0.11794597  0.84590934     0.06800
H4404       H  0.28340420  0.11488133  0.80208930     0.10200
Br4405     Br  0.27179462  0.11640754  0.85801344    -0.05300
Br4406     Br  0.29678516  0.17405797  0.84470238    -0.02300
Br4407     Br  0.31806965  0.09872166  0.83325032     0.00600
Br4408     Br  0.26799246  0.13466422  0.81539154    -0.03800
C4409       C  0.34544740  0.95990939  0.00793709    -0.11200
C4410       C  0.33478537  0.96830640  0.00975844     0.04300
C4411       C  0.33431470  0.98014950  0.00321967    -0.11800
C4412       C  0.34427624  0.98385712  0.99487156     0.19100
C4413       C  0.35468160  0.97540542  0.99275993    -0.08800
C4414       C  0.35516670  0.96356552  0.99918555    -0.01800
H4415       H  0.32624089  0.98661238  0.00481791     0.05600
C4416       C  0.34403314  0.99677687  0.98880839     0.21100
H4417       H  0.36344906  0.95737720  0.99759211     0.10800
C4418       C  0.35211628  0.00647457  0.99370102    -0.15100
C4419       C  0.35318083  0.01845672  0.98755300     0.03800
C4420       C  0.34594182  0.02095903  0.97619075    -0.10500
C4421       C  0.33740203  0.01132028  0.97168542    -0.00500
C4422       C  0.33646305  0.99931643  0.97785442    -0.05600
H4423       H  0.35791540  0.00456107  0.00219522     0.06800
H4424       H  0.33177680  0.01289791  0.96301684     0.10200
Br4425     Br  0.36857504  0.97973999  0.98130855    -0.05300
Br4426     Br  0.32052369  0.96440020  0.02093004    -0.02300
Br4427     Br  0.36500900  0.03057736  0.99523451     0.00600
Br4428     Br  0.32537634  0.98634242  0.97055158    -0.03800
C4429       C  0.37274232  0.03542649  0.91793295    -0.11200
C4430       C  0.37901669  0.02330546  0.91830386     0.04300
C4431       C  0.38734030  0.01969662  0.90828620    -0.11800
C4432       C  0.38968382  0.02807024  0.89795247     0.19100
C4433       C  0.38319354  0.04000233  0.89739342    -0.08800
C4434       C  0.37467526  0.04350605  0.90724093    -0.01800
H4435       H  0.39231210  0.01049689  0.90874457     0.05600
C4436       C  0.39964906  0.02478578  0.88833079     0.21100
H4437       H  0.37014215  0.05293665  0.90690222     0.10800
C4438       C  0.39592510  0.02085915  0.87591432    -0.15100
C4439       C  0.40505728  0.01975452  0.86601441     0.03800
C4440       C  0.41814089  0.02273480  0.86853773    -0.10500
C4441       C  0.42190268  0.02589003  0.88118167    -0.00500
C4442       C  0.41279723  0.02685519  0.89105938    -0.05600
H4443       H  0.38579769  0.01927530  0.87377800     0.06800
H4444       H  0.43190438  0.02819685  0.88326806     0.10200
Br4445     Br  0.38654076  0.05230158  0.88395953    -0.05300
Br4446     Br  0.37662190  0.01127507  0.93216075    -0.02300
Br4447     Br  0.39879469  0.01569550  0.84902798     0.00600
Br4448     Br  0.41861215  0.03209840  0.90787038    -0.03800
C4449       C  0.32709726  0.08533691  0.94379154    -0.11200
C4450       C  0.31788896  0.08562368  0.93368271     0.04300
C4451       C  0.31238928  0.09742795  0.92988899    -0.11800
C4452       C  0.31578373  0.10903461  0.93605806     0.19100
C4453       C  0.32427023  0.10866502  0.94664236    -0.08800
C4454       C  0.32981344  0.09693153  0.95042902    -0.01800
H4455       H  0.30577215  0.09761954  0.92178603     0.05600
C4456       C  0.31175457  0.12154117  0.93036791     0.21100
H4457       H  0.33678094  0.09703152  0.95823324     0.10800
C4458       C  0.30002872  0.12735179  0.93391424    -0.15100
C4459       C  0.29622988  0.13924585  0.92854338     0.03800
C4460       C  0.30428883  0.14550229  0.91945090    -0.10500
C4461       C  0.31610011  0.13966927  0.91617532    -0.00500
C4462       C  0.31980585  0.12783784  0.92146140    -0.05600
H4463       H  0.29385130  0.12264708  0.94090643     0.06800
H4464       H  0.32240059  0.14415836  0.90914972     0.10200
Br4465     Br  0.32913306  0.12412176  0.95570442    -0.05300
Br4466     Br  0.31235619  0.07035605  0.92465774    -0.02300
Br4467     Br  0.28030249  0.14664351  0.93445408     0.00600
Br4468     Br  0.33592624  0.12049592  0.91602440    -0.03800
C4469       C  0.43514718  0.12609877  0.94632114    -0.11200
C4470       C  0.42197499  0.12775028  0.94309668     0.04300
C4471       C  0.41276052  0.11908094  0.94782383    -0.11800
C4472       C  0.41643363  0.10850795  0.95539351     0.19100
C4473       C  0.42944660  0.10700013  0.95890069    -0.08800
C4474       C  0.43864451  0.11585260  0.95452761    -0.01800
H4475       H  0.40279402  0.12001127  0.94475242     0.05600
C4476       C  0.40710671  0.09789585  0.95709533     0.21100
H4477       H  0.44868133  0.11434080  0.95707413     0.10800
C4478       C  0.40796153  0.08737019  0.94864706    -0.15100
C4479       C  0.39843787  0.07785570  0.94841306     0.03800
C4480       C  0.38776562  0.07875391  0.95686930    -0.10500
C4481       C  0.38729559  0.08895878  0.96585740    -0.00500
C4482       C  0.39682251  0.09859977  0.96591253    -0.05600
H4483       H  0.41589347  0.08680603  0.94185017     0.06800
H4484       H  0.37918077  0.08980839  0.97239270     0.10200
Br4485     Br  0.43515900  0.09243821  0.96881491    -0.05300
Br4486     Br  0.41603063  0.14030208  0.93083816    -0.02300
Br4487     Br  0.40068062  0.06403410  0.93616088     0.00600
Br4488     Br  0.39524981  0.11275382  0.97778544    -0.03800
C4489       C  0.16925027  0.95714608  0.48297547    -0.11200
C4490       C  0.18176059  0.96270593  0.48343105     0.04300
C4491       C  0.18369331  0.97475582  0.48946444    -0.11800
C4492       C  0.17332823  0.98151704  0.49497408     0.19100
C4493       C  0.16092341  0.97596948  0.49463091    -0.08800
C4494       C  0.15899819  0.96388078  0.48882621    -0.01800
H4495       H  0.19329109  0.97893124  0.48974120     0.05600
C4496       C  0.17532934  0.99444879  0.50090612     0.21100
H4497       H  0.14929600  0.95996105  0.48847746     0.10800
C4498       C  0.17266358  0.00554968  0.49363716    -0.15100
C4499       C  0.17202374  0.01777204  0.49950302     0.03800
C4500       C  0.17412656  0.01904808  0.51293381    -0.10500
C4501       C  0.17777150  0.00801269  0.51996967    -0.00500
C4502       C  0.17826435  0.99579505  0.51409762    -0.05600
H4503       H  0.17049354  0.00461623  0.48344827     0.06800
H4504       H  0.17943456  0.00871864  0.53026829     0.10200
Br4505     Br  0.14623026  0.98483178  0.50165263    -0.05300
Br4506     Br  0.19663852  0.95429494  0.47625984    -0.02300
Br4507     Br  0.16806807  0.03224884  0.48864442     0.00600
Br4508     Br  0.18189648  0.98104767  0.52466385    -0.03800
C4509       C  0.23846305  0.76873838  0.40818820    -0.11200
C4510       C  0.25169896  0.76718604  0.40521588     0.04300
C4511       C  0.25761650  0.75516095  0.40695267    -0.11800
C4512       C  0.25065709  0.74460229  0.41177100     0.19100
C4513       C  0.23780929  0.74637919  0.41576044    -0.08800
C4514       C  0.23180426  0.75834840  0.41390684    -0.01800
H4515       H  0.26763121  0.75393269  0.40417971     0.05600
C4516       C  0.25683708  0.73172842  0.41170741     0.21100
H4517       H  0.22171803  0.75934315  0.41648761     0.10800
C4518       C  0.26708704  0.72924673  0.42017175    -0.15100
C4519       C  0.27440932  0.71790828  0.41909085     0.03800
C4520       C  0.27151843  0.70880200  0.40924286    -0.10500
C4521       C  0.26080454  0.71112702  0.40120313    -0.00500
C4522       C  0.25356932  0.72245980  0.40229913    -0.05600
H4523       H  0.26966068  0.73638549  0.42740486     0.06800
H4524       H  0.25833058  0.70436730  0.39358990     0.10200
Br4525     Br  0.22808621  0.73267248  0.42355992    -0.05300
Br4526     Br  0.26235734  0.78101986  0.39898209    -0.02300
Br4527     Br  0.28846985  0.71603776  0.43104613     0.00600
Br4528     Br  0.24003803  0.72532084  0.38994674    -0.03800
C4529       C  0.20482442  0.83229808  0.42118819    -0.11200
C4530       C  0.19235862  0.83416108  0.42652123     0.04300
C4531       C  0.18914348  0.84603806  0.43222911    -0.11800
C4532       C  0.19810614  0.85618484  0.43287950     0.19100
C4533       C  0.21070198  0.85415717  0.42827478    -0.08800
C4534       C  0.21397222  0.84232755  0.42252772    -0.01800
H4535       H  0.17945357  0.84749934  0.43589128     0.05600
C4536       C  0.19378563  0.86905436  0.43749972     0.21100
H4537       H  0.22360746  0.84120259  0.41862563     0.10800
C4538       C  0.19512383  0.87243474  0.45054487    -0.15100
C4539       C  0.19007875  0.88412005  0.45529394     0.03800
C4540       C  0.18356489  0.89268567  0.44688058    -0.10500
C4541       C  0.18282689  0.88947046  0.43369779    -0.00500
C4542       C  0.18775212  0.87776540  0.42902639    -0.05600
H4543       H  0.19989055  0.86583848  0.45710278     0.06800
H4544       H  0.17783668  0.89580153  0.42704563     0.10200
Br4545     Br  0.22352890  0.86752530  0.42905750    -0.05300
Br4546     Br  0.17911601  0.82113662  0.42631528    -0.02300
Br4547     Br  0.19258771  0.88784193  0.47327092     0.00600
Br4548     Br  0.18550954  0.87377001  0.41106811    -0.03800
C4549       C  0.09344855  0.75361756  0.26953616    -0.11200
C4550       C  0.08201564  0.75551745  0.26223948     0.04300
C4551       C  0.08077167  0.74985194  0.24997640    -0.11800
C4552       C  0.09065749  0.74218118  0.24483185     0.19100
C4553       C  0.10175755  0.73979777  0.25227055    -0.08800
C4554       C  0.10306632  0.74544629  0.26446987    -0.01800
H4555       H  0.07210532  0.75154180  0.24436281     0.05600
C4556       C  0.08952724  0.73690014  0.23159233     0.21100
H4557       H  0.11190148  0.74375963  0.26981049     0.10800
C4558       C  0.09473021  0.74388565  0.22125575    -0.15100
C4559       C  0.09551466  0.73840235  0.20889758     0.03800
C4560       C  0.09131421  0.72554896  0.20680794    -0.10500
C4561       C  0.08525347  0.71896332  0.21702409    -0.00500
C4562       C  0.08428636  0.72456872  0.22930602    -0.05600
H4563       H  0.09847709  0.75353960  0.22288597     0.06800
H4564       H  0.08176212  0.70918075  0.21563866     0.10200
Br4565     Br  0.11556825  0.72916363  0.24595466    -0.05300
Br4566     Br  0.06765471  0.76554730  0.26833013    -0.02300
Br4567     Br  0.10206570  0.74909608  0.19527975     0.00600
Br4568     Br  0.07623654  0.71489476  0.24286053    -0.03800
C4569       C  0.13820018  0.76861663  0.32695739    -0.11200
C4570       C  0.14940751  0.77640364  0.32628877     0.04300
C4571       C  0.15867993  0.77567341  0.33602737    -0.11800
C4572       C  0.15714867  0.76722361  0.34645509     0.19100
C4573       C  0.14644965  0.75883866  0.34672508    -0.08800
C4574       C  0.13710828  0.75951922  0.33695672    -0.01800
H4575       H  0.16697386  0.78207022  0.33568898     0.05600
C4576       C  0.16630353  0.76843817  0.35733498     0.21100
H4577       H  0.12864810  0.75337815  0.33756152     0.10800
C4578       C  0.16225528  0.77482127  0.36856762    -0.15100
C4579       C  0.17124896  0.77958841  0.37750907     0.23000
C4580       C  0.18464294  0.77803958  0.37515419    -0.10500
C4581       C  0.18850190  0.77046900  0.36451612    -0.00500
C4582       C  0.17947998  0.76574240  0.35564392    -0.05600
H4583       H  0.15209008  0.77689717  0.36993860     0.06800
H4584       H  0.19865345  0.76879162  0.36264128     0.10200
Br4585     Br  0.14410596  0.74655834  0.36033160    -0.05300
Br4586     Br  0.15276424  0.78824886  0.31241878    -0.02300
Br4587     Br  0.16439881  0.78888237  0.39203785     0.00600
Br4588     Br  0.18560129  0.75638569  0.34085826    -0.03800
C4589       C  0.02307982  0.82011569  0.46068657    -0.11200
C4590       C  0.00998770  0.82374234  0.46218497     0.04300
C4591       C  0.00409411  0.82283784  0.47430323    -0.11800
C4592       C  0.01091074  0.81816281  0.48499386     0.19100
C4593       C  0.02355109  0.81353918  0.48333251    -0.08800
C4594       C  0.02954801  0.81457028  0.47127991    -0.01800
H4595       H  0.99425329  0.82618999  0.47549529     0.05600
C4596       C  0.00515497  0.81956059  0.49795817     0.21100
H4597       H  0.03951014  0.81151660  0.47037059     0.10800
C4598       C  0.99680441  0.81005251  0.50274944    -0.15100
C4599       C  0.99038773  0.81182605  0.51454369     0.03800
C4600       C  0.99224819  0.82339234  0.52167641    -0.10500
C4601       C  0.00107619  0.83259397  0.51701792    -0.00500
C4602       C  0.00742935  0.83079210  0.50528051    -0.05600
H4603       H  0.99513519  0.80131513  0.49720107     0.06800
H4604       H  0.00268330  0.84153014  0.52225705     0.10200
Br4605     Br  0.03309575  0.80625931  0.49741628    -0.05300
Br4606     Br  0.99950393  0.82988327  0.44819714    -0.02300
Br4607     Br  0.97948840  0.79798660  0.52035147     0.00600
Br4608     Br  0.01866644  0.84426459  0.49929172    -0.03800
C4609       C  0.07942968  0.84974834  0.44683263    -0.11200
C4610       C  0.09204312  0.84967494  0.44160209     0.04300
C4611       C  0.10138065  0.85824090  0.44643291    -0.11800
C4612       C  0.09847557  0.86680525  0.45654706     0.19100
C4613       C  0.08615419  0.86635638  0.46222890    -0.08800
C4614       C  0.07676991  0.85795284  0.45733193    -0.01800
H4615       H  0.11080118  0.85861226  0.44190417     0.05600
C4616       C  0.10781550  0.87712348  0.45997400     0.21100
H4617       H  0.06721943  0.85805718  0.46159422     0.10800
C4618       C  0.10452048  0.88998442  0.45727701    -0.15100
C4619       C  0.11337690  0.89999999  0.45920062     0.03800
C4620       C  0.12585060  0.89724000  0.46396384    -0.10500
C4621       C  0.12894740  0.88444324  0.46725209    -0.00500
C4622       C  0.12010123  0.87438382  0.46513617    -0.05600
H4623       H  0.09510374  0.89219872  0.45328006     0.06800
H4624       H  0.13853961  0.88213895  0.47074122     0.10200
Br4625     Br  0.08164419  0.87717647  0.47660032    -0.05300
Br4626     Br  0.09689949  0.83909694  0.42714662    -0.02300
Br4627     Br  0.10788749  0.91722952  0.45499611     0.00600
Br4628     Br  0.12535458  0.85705239  0.46903450    -0.03800
C4629       C  0.07830899  0.78335906  0.33592998    -0.11200
C4630       C  0.07300168  0.79564114  0.33888074     0.04300
C4631       C  0.06712024  0.79779580  0.35085186    -0.11800
C4632       C  0.06625010  0.78796078  0.36006843     0.19100
C4633       C  0.07069548  0.77550893  0.35689808    -0.08800
C4634       C  0.07669170  0.77329999  0.34495471    -0.01800
H4635       H  0.06354011  0.80736900  0.35315759     0.05600
C4636       C  0.06166208  0.79136965  0.37319655     0.21100
H4637       H  0.08046722  0.76374972  0.34292029     0.10800
C4638       C  0.04858179  0.79425344  0.37522207    -0.15100
C4639       C  0.04438828  0.79976999  0.38688016     0.03800
C4640       C  0.05346990  0.80276208  0.39668561    -0.10500
C4641       C  0.06639120  0.79896847  0.39490079    -0.00500
C4642       C  0.07051852  0.79340897  0.38331070    -0.05600
H4643       H  0.04167096  0.79258083  0.36753752     0.06800
H4644       H  0.07355549  0.80105694  0.40224300     0.10200
Br4645     Br  0.06894177  0.76136005  0.36869820    -0.05300
Br4646     Br  0.07337971  0.81004618  0.32722905    -0.02300
Br4647     Br  0.02620576  0.80298141  0.38864133     0.00600
Br4648     Br  0.08862151  0.78997020  0.38132708    -0.03800
C4649       C  0.22284853  0.90597551  0.25809455    -0.11200
C4650       C  0.22439089  0.90110078  0.24542302     0.04300
C4651       C  0.23629477  0.90243381  0.23913385    -0.11800
C4652       C  0.24666528  0.90876358  0.24515545     0.19100
C4653       C  0.24479861  0.91459669  0.25726136    -0.08800
C4654       C  0.23298374  0.91318281  0.26362131    -0.01800
H4655       H  0.23760218  0.89816053  0.22966927     0.05600
C4656       C  0.25965205  0.90800006  0.23930745     0.21100
H4657       H  0.23199227  0.91718314  0.27323814     0.10800
C4658       C  0.26368734  0.91734615  0.23042562    -0.15100
C4659       C  0.27573655  0.91634557  0.22429956     0.03800
C4660       C  0.28399847  0.90577855  0.22711352    -0.10500
C4661       C  0.27999259  0.89674440  0.23641311    -0.00500
C4662       C  0.26795022  0.89771920  0.24237628    -0.05600
H4663       H  0.25735566  0.92534940  0.22812227     0.06800
H4664       H  0.28602716  0.88852298  0.23873150     0.10200
Br4665     Br  0.25837066  0.92395390  0.26575793    -0.05300
Br4666     Br  0.21067414  0.89275137  0.23609026    -0.02300
Br4667     Br  0.28010786  0.92976471  0.21230236     0.00600
Br4668     Br  0.26297870  0.88441315  0.25425353    -0.03800
C4669       C  0.21309359  0.87513733  0.31560773    -0.11200
C4670       C  0.22352158  0.86658215  0.31349853     0.04300
C4671       C  0.22702503  0.85772677  0.32307549    -0.11800
C4672       C  0.22023915  0.85717815  0.33474763     0.19100
C4673       C  0.21039254  0.86623240  0.33718806    -0.08800
C4674       C  0.20702453  0.87523102  0.32772505    -0.01800
H4675       H  0.23469718  0.85086111  0.32119800     0.05600
C4676       C  0.22249546  0.84633200  0.34371419     0.21100
H4677       H  0.19896009  0.88165578  0.32951512     0.10800
C4678       C  0.22871863  0.84858498  0.35553223    -0.15100
C4679       C  0.22908427  0.83899093  0.36504656     0.03800
C4680       C  0.22309500  0.82692471  0.36275314    -0.10500
C4681       C  0.21746696  0.82451172  0.35065116    -0.00500
C4682       C  0.21719841  0.83405401  0.34114299    -0.05600
H4683       H  0.23273756  0.85804623  0.35758899     0.06800
H4684       H  0.21281342  0.81530944  0.34875228     0.10200
Br4685     Br  0.20030160  0.86570412  0.35271120    -0.05300
Br4686     Br  0.23319485  0.86635081  0.29770720    -0.02300
Br4687     Br  0.23646851  0.84350791  0.38144627     0.00600
Br4688     Br  0.20854393  0.83022220  0.32518738    -0.03800
C4689       C  0.12151993  0.80990652  0.28305869    -0.11200
C4690       C  0.13372745  0.80878426  0.27693709     0.04300
C4691       C  0.14099283  0.81987680  0.27433076    -0.11800
C4692       C  0.13625746  0.83215770  0.27738240     0.19100
C4693       C  0.12354708  0.83341931  0.28197451    -0.08800
C4694       C  0.11629815  0.82234731  0.28484781    -0.01800
H4695       H  0.15069503  0.81887767  0.27054412     0.05600
C4696       C  0.14542216  0.84310692  0.27783577     0.21100
H4697       H  0.10684729  0.82351841  0.28916215     0.10800
C4698       C  0.14895075  0.84963619  0.26654219    -0.15100
C4699       C  0.15817289  0.85961560  0.26687046     0.03800
C4700       C  0.16408277  0.86311202  0.27873277    -0.10500
C4701       C  0.16044993  0.85640280  0.28995919    -0.00500
C4702       C  0.15131148  0.84651057  0.28957855    -0.05600
H4703       H  0.14455853  0.84690963  0.25743958     0.06800
H4704       H  0.16479521  0.85876455  0.29918145     0.10200
Br4705     Br  0.11612082  0.85009677  0.28518581    -0.05300
Br4706     Br  0.14147422  0.79256869  0.27220343    -0.02300
Br4707     Br  0.16218110  0.86780612  0.25076472     0.00600
Br4708     Br  0.14751082  0.83757507  0.30535225    -0.03800
C4709       C  0.97645727  0.00618934  0.32497745    -0.11200
C4710       C  0.97828968  0.99302023  0.32808050     0.04300
C4711       C  0.99053675  0.98743564  0.32678878    -0.11800
C4712       C  0.00113416  0.99478937  0.32267703     0.19100
C4713       C  0.99918983  0.00766426  0.31881769    -0.08800
C4714       C  0.98689327  0.01319616  0.31980355    -0.01800
H4715       H  0.99196474  0.97749302  0.32972961     0.05600
C4716       C  0.01424644  0.98936977  0.32435400     0.21100
H4717       H  0.98573658  0.02330948  0.31737424     0.10800
C4718       C  0.01914320  0.98044364  0.31542339    -0.15100
C4719       C  0.03080792  0.97394878  0.31779217     0.03800
C4720       C  0.03758992  0.97612104  0.32949380    -0.10500
C4721       C  0.03292104  0.98560596  0.33803869    -0.00500
C4722       C  0.02140869  0.99219173  0.33554991    -0.05600
H4723       H  0.01376683  0.97837705  0.30668237     0.06800
H4724       H  0.03795329  0.98757135  0.34700059     0.10200
Br4725     Br  0.01326374  0.01834939  0.31324932    -0.05300
Br4726     Br  0.96466072  0.98222176  0.33451458    -0.02300
Br4727     Br  0.03698568  0.96255514  0.30450919     0.00600
Br4728     Br  0.01539936  0.00443774  0.34813169    -0.03800
C4729       C  0.04196741  0.86528347  0.40382187    -0.11200
C4730       C  0.03084711  0.86891615  0.39675425     0.04300
C4731       C  0.03132074  0.87977398  0.38864608    -0.11800
C4732       C  0.04265961  0.88713529  0.38758895     0.19100
C4733       C  0.05348892  0.88386505  0.39504358    -0.08800
C4734       C  0.05309572  0.87305087  0.40298884    -0.01800
H4735       H  0.02291571  0.88234805  0.38297638     0.05600
C4736       C  0.04344711  0.89801518  0.37845633     0.21100
H4737       H  0.06167464  0.87065293  0.40847760     0.10800
C4738       C  0.04089423  0.91052691  0.38289105    -0.15100
C4739       C  0.04403490  0.92133198  0.37541796     0.03800
C4740       C  0.04971263  0.91965206  0.36304685    -0.10500
C4741       C  0.05155621  0.90697870  0.35841559    -0.00500
C4742       C  0.04861490  0.89624540  0.36605137    -0.05600
H4743       H  0.03710066  0.91190655  0.39253767     0.06800
H4744       H  0.05593924  0.90536003  0.34906794     0.10200
Br4745     Br  0.06919181  0.89375045  0.39446060    -0.05300
Br4746     Br  0.01501649  0.85925938  0.39719384    -0.02300
Br4747     Br  0.04110386  0.93786666  0.38340807     0.00600
Br4748     Br  0.05285259  0.87935131  0.35964920    -0.03800
C4749       C  0.10209753  0.94547319  0.31777931    -0.11200
C4750       C  0.11320985  0.95351818  0.31842906     0.04300
C4751       C  0.12483021  0.94941842  0.31287182    -0.11800
C4752       C  0.12566340  0.93756602  0.30640477     0.19100
C4753       C  0.11450139  0.92991925  0.30500885    -0.08800
C4754       C  0.10288462  0.93388666  0.31066011    -0.01800
H4755       H  0.13339964  0.95536048  0.31391328     0.05600
C4756       C  0.13849487  0.93274448  0.30242051     0.21100
H4757       H  0.09455503  0.92758539  0.30988529     0.10800
C4758       C  0.14678118  0.92781341  0.31189540    -0.15100
C4759       C  0.15860329  0.92219278  0.30857566     0.03800
C4760       C  0.16233728  0.92148604  0.29545601    -0.10500
C4761       C  0.15423178  0.92698523  0.28605398    -0.00500
C4762       C  0.14242234  0.93261616  0.28944751    -0.05600
H4763       H  0.14380461  0.92792939  0.32191639     0.06800
H4764       H  0.15691428  0.92658260  0.27596138     0.10200
Br4765     Br  0.11486399  0.91356460  0.29622570    -0.05300
Br4766     Br  0.11371326  0.96992508  0.32715009    -0.02300
Br4767     Br  0.16839697  0.91462209  0.32239722     0.00600
Br4768     Br  0.13183746  0.93976198  0.27606824    -0.03800
C4769       C  0.09345063  0.95600358  0.37739590    -0.11200
C4770       C  0.10436973  0.96418125  0.37782398     0.04300
C4771       C  0.11354555  0.96265232  0.38766626    -0.11800
C4772       C  0.11190315  0.95316418  0.39715847     0.19100
C4773       C  0.10062323  0.94559516  0.39720312    -0.08800
C4774       C  0.09157454  0.94697946  0.38732772    -0.01800
H4775       H  0.12219750  0.96855428  0.38766058     0.05600
C4776       C  0.12224814  0.95065850  0.40660032     0.21100
H4777       H  0.08318949  0.94069448  0.38720387     0.10800
C4778       C  0.12266773  0.95782978  0.41805935    -0.15100
C4779       C  0.13103272  0.95432183  0.42806892     0.03800
C4780       C  0.13918862  0.94345164  0.42661398    -0.10500
C4781       C  0.13931607  0.93684483  0.41475308    -0.00500
C4782       C  0.13088025  0.94031465  0.40482190    -0.05600
H4783       H  0.11611073  0.96587751  0.41940576     0.06800
H4784       H  0.14546789  0.92847857  0.41343413     0.10200
Br4785     Br  0.09744394  0.93291068  0.41032370    -0.05300
Br4786     Br  0.10788959  0.97669006  0.36466364    -0.02300
Br4787     Br  0.13077726  0.96475819  0.44341523     0.00600
Br4788     Br  0.13088309  0.93016448  0.38928997    -0.03800
C4789       C  0.83834048  0.52205304  0.97860702    -0.11200
C4790       C  0.82651763  0.51525028  0.97728177     0.04300
C4791       C  0.82481754  0.50335143  0.98355864    -0.11800
C4792       C  0.83476792  0.49801326  0.99100799     0.19100
C4793       C  0.84645465  0.50478261  0.99239880    -0.08800
C4794       C  0.84809123  0.51671770  0.98639471    -0.01800
H4795       H  0.81579134  0.49814939  0.98246765     0.05600
C4796       C  0.83325099  0.48516003  0.99696804     0.21100
H4797       H  0.85730467  0.52159031  0.98742598     0.10800
C4798       C  0.83748449  0.47422981  0.99017748    -0.15100
C4799       C  0.83890925  0.46230856  0.99638945     0.03800
C4800       C  0.83593624  0.46120920  0.00966234    -0.10500
C4801       C  0.83067885  0.47197708  0.01610304    -0.00500
C4802       C  0.82949638  0.48391118  0.00992386    -0.05600
H4803       H  0.84035809  0.47515131  0.98017212     0.06800
H4804       H  0.82830668  0.47139431  0.02626137     0.10200
Br4805     Br  0.86072620  0.49775291  0.00191257    -0.05300
Br4806     Br  0.81230838  0.52157504  0.96720942    -0.02300
Br4807     Br  0.84524843  0.44813475  0.98622019     0.00600
Br4808     Br  0.82389139  0.49852214  0.01987311    -0.03800
C4809       C  0.77702399  0.71416344  0.90955398    -0.11200
C4810       C  0.78239318  0.72513579  0.91576672     0.04300
C4811       C  0.77508174  0.73645528  0.91695325    -0.11800
C4812       C  0.76246744  0.73712483  0.91209091     0.19100
C4813       C  0.75693621  0.72609294  0.90633193    -0.08800
C4814       C  0.76418140  0.71476687  0.90515892    -0.01800
H4815       H  0.77944842  0.74498244  0.92122156     0.05600
C4816       C  0.75598728  0.74982804  0.91141838     0.21100
H4817       H  0.75985144  0.70650596  0.90036890     0.10800
C4818       C  0.76077104  0.75900610  0.90273581    -0.15100
C4819       C  0.75439617  0.77074393  0.90078515     0.03800
C4820       C  0.74282126  0.77341518  0.90753411    -0.10500
C4821       C  0.73851323  0.76447926  0.91682716    -0.00500
C4822       C  0.74502059  0.75279556  0.91883515    -0.05600
H4823       H  0.76940664  0.75689157  0.89722137     0.06800
H4824       H  0.72980417  0.76636807  0.92229321     0.10200
Br4825     Br  0.73993908  0.72629696  0.89890845    -0.05300
Br4826     Br  0.79993160  0.72593167  0.92178136    -0.02300
Br4827     Br  0.76227043  0.78258928  0.88890787     0.00600
Br4828     Br  0.73859433  0.74117771  0.93172751    -0.03800
C4829       C  0.82568096  0.58858127  0.94959670    -0.11200
C4830       C  0.82267566  0.59810058  0.95898913     0.04300
C4831       C  0.81724277  0.60992170  0.95517080    -0.11800
C4832       C  0.81486298  0.61257916  0.94211527     0.19100
C4833       C  0.81780976  0.60309891  0.93279591    -0.08800
C4834       C  0.82285049  0.59119541  0.93659967    -0.01800
H4835       H  0.81515038  0.61721431  0.96239422     0.05600
C4836       C  0.81048898  0.62563363  0.93818378     0.21100
H4837       H  0.82532454  0.58423938  0.92917367     0.10800
C4838       C  0.81879623  0.63619779  0.94003247    -0.15100
C4839       C  0.81611933  0.64823907  0.93447916     0.03800
C4840       C  0.80489493  0.64982081  0.92681156    -0.10500
C4841       C  0.79604764  0.63949542  0.92602116    -0.00500
C4842       C  0.79872641  0.62752845  0.93164775    -0.05600
H4843       H  0.82773392  0.63490350  0.94532322     0.06800
H4844       H  0.78723240  0.64048443  0.92047471     0.10200
Br4845     Br  0.81658213  0.60637430  0.91459809    -0.05300
Br4846     Br  0.82581855  0.59581232  0.97710153    -0.02300
Br4847     Br  0.82847709  0.66178493  0.93752268     0.00600
Br4848     Br  0.78621414  0.61393799  0.92974033    -0.03800
C4849       C  0.78085088  0.57310089  0.76475059    -0.11200
C4850       C  0.77091302  0.56451840  0.76865178     0.04300
C4851       C  0.75950971  0.56365391  0.76143542    -0.11800
C4852       C  0.75773699  0.57111241  0.75032747     0.19100
C4853       C  0.76783431  0.57910927  0.74601413    -0.08800
C4854       C  0.77926674  0.57997370  0.75314655    -0.01800
H4855       H  0.75171454  0.55754978  0.76483024     0.05600
C4856       C  0.74467434  0.57214136  0.74470230     0.21100
H4857       H  0.78669412  0.58657827  0.74988211     0.10800
C4858       C  0.73526679  0.57888998  0.75170255    -0.15100
C4859       C  0.72324465  0.58169709  0.74626991     0.03800
C4860       C  0.72047758  0.57772439  0.73351415    -0.10500
C4861       C  0.72963131  0.57016385  0.72686137    -0.00500
C4862       C  0.74165492  0.56735365  0.73235503    -0.05600
H4863       H  0.73745980  0.58237043  0.76133289     0.06800
H4864       H  0.72767061  0.56686333  0.71712580     0.10200
Br4865     Br  0.76598193  0.59005688  0.73118886    -0.05300
Br4866     Br  0.77167368  0.55418063  0.78400503    -0.02300
Br4867     Br  0.71114470  0.59088778  0.75689323     0.00600
Br4868     Br  0.75371623  0.55722251  0.72258598    -0.03800
C4869       C  0.79368340  0.60685544  0.81957759    -0.11200
C4870       C  0.79557126  0.60501008  0.83298675     0.04300
C4871       C  0.79181276  0.61466430  0.84170515    -0.11800
C4872       C  0.78620474  0.62619456  0.83739484     0.19100
C4873       C  0.78336979  0.62762935  0.82422772    -0.08800
C4874       C  0.78704288  0.61800601  0.81547217    -0.01800
H4875       H  0.79410300  0.61355548  0.85184816     0.05600
C4876       C  0.78608277  0.63739031  0.84627320     0.21100
H4877       H  0.78521127  0.61957914  0.80530615     0.10800
C4878       C  0.79615695  0.64636083  0.84518745    -0.15100
C4879       C  0.79823799  0.65570670  0.85469333     0.03800
C4880       C  0.78993237  0.65637541  0.86548260    -0.10500
C4881       C  0.77926642  0.64795868  0.86609695    -0.00500
C4882       C  0.77742868  0.63835300  0.85668572    -0.05600
H4883       H  0.80287431  0.64564602  0.83720349     0.06800
H4884       H  0.77279133  0.64834332  0.87429147     0.10200
Br4885     Br  0.77514491  0.64289646  0.81773191    -0.05300
Br4886     Br  0.80426659  0.59030772  0.84017190    -0.02300
Br4887     Br  0.81282019  0.66700266  0.85241411     0.00600
Br4888     Br  0.76343227  0.62638431  0.85869884    -0.03800
C4889       C  0.97038931  0.50114532  0.82894486    -0.11200
C4890       C  0.97291868  0.48882815  0.83432094     0.04300
C4891       C  0.98503532  0.48306985  0.83257377    -0.11800
C4892       C  0.99475921  0.48932574  0.82556153     0.19100
C4893       C  0.99203259  0.50112970  0.81950237    -0.08800
C4894       C  0.97993091  0.50690209  0.82115940    -0.01800
H4895       H  0.98706837  0.47388839  0.83715713     0.05600
C4896       C  0.00801128  0.48408536  0.82602385     0.21100
H4897       H  0.97825336  0.51628605  0.81686378     0.10800
C4898       C  0.01160618  0.47395347  0.81778910    -0.15100
C4899       C  0.02354144  0.46773789  0.81929736     0.03800
C4900       C  0.03186015  0.47138895  0.82954547    -0.10500
C4901       C  0.02855736  0.48219072  0.83711176    -0.00500
C4902       C  0.01679987  0.48854490  0.83537938    -0.05600
H4903       H  0.00501092  0.47073434  0.81031646     0.06800
H4904       H  0.03485345  0.48538366  0.84484530     0.10200
Br4905     Br  0.00483970  0.51002842  0.80953847    -0.05300
Br4906     Br  0.96047062  0.47931517  0.84421908    -0.02300
Br4907     Br  0.02787782  0.45460253  0.80690303     0.00600
Br4908     Br  0.01281701  0.50284031  0.84652509    -0.03800
C4909       C  0.90573453  0.53437104  0.81519932    -0.11200
C4910       C  0.89644970  0.52473940  0.81206848     0.04300
C4911       C  0.88432176  0.52831619  0.80723876    -0.11800
C4912       C  0.88116451  0.54131788  0.80534755     0.19100
C4913       C  0.89049658  0.55088829  0.80790278    -0.08800
C4914       C  0.90265183  0.54738319  0.81266770    -0.01800
H4915       H  0.87716369  0.52091764  0.80526188     0.05600
C4916       C  0.86781098  0.54486259  0.80169598     0.21100
H4917       H  0.90948546  0.55498142  0.81498557     0.10800
C4918       C  0.85818869  0.54489685  0.81119317    -0.15100
C4919       C  0.84589580  0.54995660  0.80866127     0.03800
C4920       C  0.84312423  0.55526621  0.79638265    -0.10500
C4921       C  0.85251301  0.55413010  0.78659876    -0.00500
C4922       C  0.86474032  0.54899080  0.78917116    -0.05600
H4923       H  0.86041860  0.54141076  0.82078949     0.06800
H4924       H  0.85062184  0.55785966  0.77702851     0.10200
Br4925     Br  0.88669282  0.56895181  0.80599850    -0.05300
Br4926     Br  0.89918801  0.50654877  0.81454421    -0.02300
Br4927     Br  0.83366376  0.54953848  0.82257332     0.00600
Br4928     Br  0.87714865  0.54825674  0.77546010    -0.03800
C4929       C  0.91364768  0.52028755  0.87405376    -0.11200
C4930       C  0.91692679  0.52476025  0.88650482     0.04300
C4931       C  0.90743584  0.52559071  0.89605308    -0.11800
C4932       C  0.89462704  0.52198626  0.89346373     0.19100
C4933       C  0.89153386  0.51665103  0.88133308    -0.08800
C4934       C  0.90104030  0.51578036  0.87175041    -0.01800
H4935       H  0.90995113  0.52957229  0.90540755     0.05600
C4936       C  0.88455937  0.52538782  0.90302856     0.21100
H4937       H  0.89838929  0.51221061  0.86227192     0.10800
C4938       C  0.87629629  0.53578107  0.90036502    -0.15100
C4939       C  0.86825012  0.54097606  0.90991815     0.03800
C4940       C  0.86837357  0.53568710  0.92250282    -0.10500
C4941       C  0.87622723  0.52484342  0.92490313    -0.00500
C4942       C  0.88424475  0.51970288  0.91532292    -0.05600
H4943       H  0.87659888  0.54031240  0.89095494     0.06800
H4944       H  0.87640902  0.52050955  0.93440434     0.10200
Br4945     Br  0.87442173  0.51072345  0.87738880    -0.05300
Br4946     Br  0.93419773  0.52983325  0.89104038    -0.02300
Br4947     Br  0.85839293  0.55598107  0.90527207     0.00600
Br4948     Br  0.89475361  0.50503756  0.91950294    -0.03800
C4949       C  0.99342436  0.65172004  0.95695775    -0.11200
C4950       C  0.99210118  0.66385128  0.96316474     0.04300
C4951       C  0.99823118  0.66606610  0.97503959    -0.11800
C4952       C  0.00591807  0.65648517  0.98071498     0.19100
C4953       C  0.00810065  0.64484399  0.97400231    -0.08800
C4954       C  0.00186081  0.64254276  0.96229865    -0.01800
H4955       H  0.99669977  0.67514801  0.98003628     0.05600
C4956       C  0.01069706  0.65807631  0.99406937     0.21100
H4957       H  0.00324259  0.63325896  0.95764059     0.10800
C4958       C  0.00588246  0.64976055  0.00356315    -0.15100
C4959       C  0.01143135  0.64928428  0.01583297     0.03800
C4960       C  0.02222104  0.65719530  0.01875105    -0.10500
C4961       C  0.02621224  0.66639109  0.00955735    -0.00500
C4962       C  0.02046562  0.66695300  0.99733193    -0.05600
H4963       H  0.99802431  0.64322305  0.00122735     0.06800
H4964       H  0.03423137  0.67280432  0.01163340     0.10200
Br4965     Br  0.01931942  0.63160895  0.98056245    -0.05300
Br4966     Br  0.98230120  0.67783099  0.95596781    -0.02300
Br4967     Br  0.00379422  0.63735101  0.02778542     0.00600
Br4968     Br  0.02679217  0.67943510  0.98522232    -0.03800
C4969       C  0.93841131  0.61835686  0.94896024    -0.11200
C4970       C  0.94105579  0.60739033  0.95675409     0.04300
C4971       C  0.93087145  0.59990636  0.96155300    -0.11800
C4972       C  0.91802864  0.60288670  0.95857444     0.19100
C4973       C  0.91531576  0.61418326  0.95154267    -0.08800
C4974       C  0.92543969  0.62186831  0.94695176    -0.01800
H4975       H  0.93300588  0.59123024  0.96699035     0.05600
C4976       C  0.90781973  0.59318790  0.96105383     0.21100
H4977       H  0.92310576  0.63020436  0.94109738     0.10800
C4978       C  0.89781423  0.59586750  0.96980228    -0.15100
C4979       C  0.88699674  0.58772192  0.97062452     0.03800
C4980       C  0.88621414  0.57666600  0.96265703    -0.10500
C4981       C  0.89662291  0.57362667  0.95454475    -0.00500
C4982       C  0.90732416  0.58175818  0.95365998    -0.05600
H4983       H  0.89810744  0.60467173  0.97548146     0.06800
H4984       H  0.89614970  0.56517384  0.94835552     0.10200
Br4985     Br  0.89800571  0.61873896  0.94671114    -0.05300
Br4986     Br  0.95815746  0.60136668  0.96074197    -0.02300
Br4987     Br  0.87298023  0.59303223  0.98150720     0.00600
Br4988     Br  0.92034507  0.57746210  0.94117533    -0.03800
C4989       C  0.97906288  0.60572918  0.90049590    -0.11200
C4990       C  0.97616446  0.59270868  0.90330562     0.04300
C4991       C  0.97529386  0.58369602  0.89329272    -0.11800
C4992       C  0.97723686  0.58742700  0.88044814     0.19100
C4993       C  0.98126907  0.60012082  0.87775160    -0.08800
C4994       C  0.98228773  0.60915318  0.88778534    -0.01800
H4995       H  0.97230477  0.57389398  0.89545716     0.05600
C4996       C  0.97295769  0.57848776  0.87016608     0.21100
H4997       H  0.98462968  0.61909359  0.88547715     0.10800
C4998       C  0.96122143  0.58104951  0.86391028    -0.15100
C4999       C  0.95514685  0.57159809  0.85636306     0.03800
C5000       C  0.96083857  0.55925741  0.85507556    -0.10500
C5001       C  0.97300044  0.55702279  0.86070137    -0.00500
C5002       C  0.97909768  0.56655481  0.86813157    -0.05600
H5003       H  0.95636146  0.59017857  0.86557164     0.06800
H5004       H  0.97759002  0.54766789  0.85967029     0.10200
Br5005     Br  0.98472903  0.60565121  0.86045817    -0.05300
Br5006     Br  0.97282182  0.58674482  0.92052258    -0.02300
Br5007     Br  0.93841285  0.57570365  0.84950042     0.00600
Br5008     Br  0.99559674  0.56281534  0.87566761    -0.03800
C5009       C  0.92198870  0.71745878  0.76946465    -0.11200
C5010       C  0.91971814  0.73092544  0.76896487     0.04300
C5011       C  0.92072942  0.73749844  0.75720236    -0.11800
C5012       C  0.92413461  0.73092950  0.74586236     0.19100
C5013       C  0.92728694  0.71772665  0.74649175    -0.08800
C5014       C  0.92620835  0.71110567  0.75821026    -0.01800
H5015       H  0.91843050  0.74770692  0.75680951     0.05600
C5016       C  0.92268210  0.73753650  0.73329841     0.21100
H5017       H  0.92811301  0.70081092  0.75836310     0.10800
C5018       C  0.93323570  0.74372320  0.72747483    -0.15100
C5019       C  0.93182304  0.75009702  0.71558879     0.03800
C5020       C  0.91969928  0.75008843  0.70925462    -0.10500
C5021       C  0.90924439  0.74377302  0.71517221    -0.00500
C5022       C  0.91061105  0.73769936  0.72709623    -0.05600
H5023       H  0.94256172  0.74365022  0.73222424     0.06800
H5024       H  0.89978646  0.74386838  0.71068727     0.10200
Br5025     Br  0.93238703  0.70824008  0.73141057    -0.05300
Br5026     Br  0.91542574  0.74094888  0.78396880    -0.02300
Br5027     Br  0.94682411  0.75830832  0.70845846     0.00600
Br5028     Br  0.89559142  0.72998237  0.73473167    -0.03800
C5029       C  0.88894455  0.66270795  0.78346001    -0.11200
C5030       C  0.87639844  0.66516989  0.77850382     0.04300
C5031       C  0.86787350  0.65489902  0.77641181    -0.11800
C5032       C  0.87154524  0.64220979  0.77915781     0.19100
C5033       C  0.88426693  0.63959462  0.78304896    -0.08800
C5034       C  0.89288114  0.64979490  0.78508903    -0.01800
H5035       H  0.85804898  0.65689202  0.77339489     0.05600
C5036       C  0.86146080  0.63226009  0.78008271     0.21100
H5037       H  0.90243914  0.64760827  0.78873349     0.10800
C5038       C  0.85700032  0.62588513  0.76900159    -0.15100
C5039       C  0.84730982  0.61644312  0.76985626     0.03800
C5040       C  0.84196345  0.61336101  0.78204466    -0.10500
C5041       C  0.84645707  0.61999557  0.79303308    -0.00500
C5042       C  0.85603070  0.62937022  0.79213064    -0.05600
H5043       H  0.86113097  0.62821224  0.75969274     0.06800
H5044       H  0.84247036  0.61796578  0.80247178     0.10200
Br5045     Br  0.88986271  0.62232068  0.78677962    -0.05300
Br5046     Br  0.86967308  0.68215650  0.77515154    -0.02300
Br5047     Br  0.84222491  0.60807710  0.75409106     0.00600
Br5048     Br  0.86122807  0.63815536  0.80765376    -0.03800
C5049       C  0.93981767  0.68419055  0.83172287    -0.11200
C5050       C  0.94389619  0.69345018  0.84098809     0.04300
C5051       C  0.94928759  0.68936773  0.85269205    -0.11800
C5052       C  0.95092574  0.67620705  0.85535252     0.19100
C5053       C  0.94776238  0.66702266  0.84581225    -0.08800
C5054       C  0.94233843  0.67104377  0.83412213    -0.01800
H5055       H  0.95184872  0.69649056  0.85994430     0.05600
C5056       C  0.95458645  0.67214864  0.86854425     0.21100
H5057       H  0.93937082  0.66373866  0.82721870     0.10800
C5058       C  0.94533678  0.67293671  0.87839930    -0.15100
C5059       C  0.94786337  0.66796814  0.89070715     0.03800
C5060       C  0.95981622  0.66194277  0.89326869    -0.10500
C5061       C  0.96934743  0.66193156  0.88358126    -0.00500
C5062       C  0.96683771  0.66701615  0.87133199    -0.05600
H5063       H  0.93599211  0.67720734  0.87641821     0.06800
H5064       H  0.97866795  0.65753175  0.88537126     0.10200
Br5065     Br  0.94955030  0.64879763  0.84877422    -0.05300
Br5066     Br  0.94218802  0.71178600  0.83861187    -0.02300
Br5067     Br  0.93482782  0.67014551  0.90367152     0.00600
Br5068     Br  0.98034225  0.66665486  0.85867758    -0.03800
C5069       C  0.88093030  0.69953662  0.83043434    -0.11200
C5070       C  0.86974305  0.69168966  0.83067103     0.04300
C5071       C  0.86111043  0.69268392  0.84096296    -0.11800
C5072       C  0.86346034  0.70124624  0.85118920     0.19100
C5073       C  0.87448626  0.70916518  0.85095878    -0.08800
C5074       C  0.88304595  0.70840609  0.84052370    -0.01800
H5075       H  0.85258625  0.68658991  0.84110354     0.05600
C5076       C  0.85434171  0.70130625  0.86209409     0.21100
H5077       H  0.89165734  0.71436698  0.84057159     0.10800
C5078       C  0.85653037  0.69298017  0.87248367    -0.15100
C5079       C  0.84685885  0.69063725  0.88160765     0.03800
C5080       C  0.83453586  0.69640838  0.88008416    -0.10500
C5081       C  0.83286720  0.70564682  0.87026298    -0.00500
C5082       C  0.84269245  0.70818116  0.86138370    -0.05600
H5083       H  0.86562567  0.68785127  0.87317854     0.06800
H5084       H  0.82368891  0.71052448  0.86909619     0.10200
Br5085     Br  0.87836856  0.72074265  0.86490179    -0.05300
Br5086     Br  0.86551643  0.67958707  0.81718652    -0.02300
Br5087     Br  0.85116275  0.67899260  0.89536603     0.00600
Br5088     Br  0.83967503  0.72066076  0.84806697    -0.03800
loop_ 
_geom_bond_atom_site_label_1 
_geom_bond_atom_site_label_2 
_geom_bond_distance 
_geom_bond_site_symmetry_2 
_ccdc_geom_bond_type 
O1            C4   1.268       .  A
O1           Cd6   2.480       .  S
C2           O11   1.263       .  A
C2            O7   1.270       .  A
C2         C5029   1.483       .  S
O3            C9   1.261       .  A
O3           Cd6   2.426       .  S
C4           O12   1.263       .  A
C4         C5049   1.489       .  S
C5           O10   1.266       .  A
C5            O8   1.266       .  A
C5         C5009   1.486       .  S
Cd6          O13   2.497       .  S
Cd6          O12   2.448       .  S
Cd6          O11   2.418       .  S
Cd6           O7   2.464       .  S
Cd6          O10   2.470       .  S
Cd6           O8   2.476       .  S
C9           O13   1.269       .  A
C9         C5069   1.477       .  S
O14          C17   1.272       .  A
O14         Cd19   2.496       .  S
C15          O24   1.264       .  A
C15          O20   1.268       .  A
C15        C5060   1.484       .  S
O16          C22   1.265       .  A
O16         Cd19   2.441       .  S
C17          O25   1.263       .  A
C17        C4969   1.491       .  S
C18          O23   1.264       .  A
C18          O21   1.261       .  A
C18        C4989   1.474       .  S
Cd19         O26   2.473       .  S
Cd19         O25   2.438       .  S
Cd19         O24   2.451       .  S
Cd19         O20   2.490       .  S
Cd19         O23   2.488       .  S
Cd19         O21   2.436       .  S
C22          O26   1.265       .  A
C22        C4949   1.482       .  S
O27          C30   1.267       .  A
O27         Cd32   2.486       .  S
C28          O37   1.266       .  A
C28          O33   1.268       .  A
C28        C5000   1.479       .  S
O29          C35   1.265       .  A
O29         Cd32   2.498       .  S
C30          O38   1.263       .  A
C30        C4909   1.492       .  S
C31          O36   1.265       .  A
C31          O34   1.266       .  A
C31        C4889   1.488       .  S
Cd32         O39   2.449       .  S
Cd32         O38   2.464       .  S
Cd32         O37   2.441       .  S
Cd32         O33   2.479       .  S
Cd32         O36   2.484       .  S
Cd32         O34   2.475       .  S
C35          O39   1.262       .  A
C35        C4929   1.478       .  S
O40          C43   1.267       .  A
O40         Cd45   2.477       .  S
C41          O50   1.265       .  A
C41          O46   1.268       .  A
C41        C4869   1.489       .  S
O42          C48   1.267       .  A
O42         Cd45   2.486       .  S
C43          O51   1.265       .  A
C43        C4920   1.490       .  S
C44          O49   1.266       .  A
C44          O47   1.265       .  A
C44        C4849   1.487       .  S
Cd45         O52   2.398       .  S
Cd45         O51   2.454       .  S
Cd45         O50   2.442       .  S
Cd45         O46   2.494       .  S
Cd45         O49   2.458       .  S
Cd45         O47   2.455       .  S
C48          O52   1.264       .  A
C48        C5040   1.481       .  S
O53          C56   1.264       .  A
O53         Cd58   2.475       .  S
C54          O63   1.266       .  A
C54          O59   1.265       .  A
C54        C5080   1.486       .  S
O55          C61   1.267       .  A
O55         Cd58   2.501       .  S
C56          O64   1.265       .  A
C56        C4840   1.488       .  S
C57          O62   1.265       .  A
C57          O60   1.265       .  A
C57        C4809   1.483       .  S
Cd58         O65   2.425       .  S
Cd58         O64   2.458       .  S
Cd58         O63   2.458       .  S
Cd58         O59   2.461       .  S
Cd58         O62   2.449       .  S
Cd58         O60   2.477       .  S
C61          O65   1.262       .  A
C61        C4880   1.478       .  S
O66          C69   1.267       .  A
O66         Cd71   2.466       .  S
C67          O76   1.266       .  A
C67          O72   1.268       .  A
C67        C4940   1.487       .  S
O68          C74   1.268       .  A
O68         Cd71   2.503       .  S
C69          O77   1.264       .  A
C69        C4829   1.488       .  S
C70          O75   1.266       .  A
C70          O73   1.265       .  A
C70        C4789   1.486       .  S
Cd71         O78   2.409       .  S
Cd71         O77   2.485       .  S
Cd71         O76   2.445       .  S
Cd71         O72   2.488       .  S
Cd71         O75   2.455       .  S
Cd71         O73   2.489       .  S
C74          O78   1.262       .  A
C74        C4980   1.475       .  S
O79          C82   1.268       .  A
O79         Cd84   2.485       .  S
C80          O89   1.264       .  A
C80          O85   1.271       .  A
C80        C4740   1.489       .  S
O81          C87   1.262       .  A
O81         Cd84   2.409       .  S
C82          O90   1.263       .  A
C82        C4749   1.491       .  S
C83          O88   1.268       .  A
C83          O86   1.265       .  A
C83        C4720   1.490       .  S
Cd84         O91   2.505       .  S
Cd84         O90   2.460       .  S
Cd84         O89   2.434       .  S
Cd84         O85   2.480       .  S
Cd84         O88   2.479       .  S
Cd84         O86   2.475       .  S
C87          O91   1.270       .  A
C87        C4769   1.476       .  S
O92          C95   1.265       .  A
O92         Cd97   2.458       .  S
C93         O102   1.265       .  A
C93          O98   1.267       .  A
C93        C4669   1.480       .  S
O94         C100   1.267       .  A
O94         Cd97   2.501       .  S
C95         O103   1.265       .  A
C95        C4760   1.481       .  S
C96         O101   1.265       .  A
C96          O99   1.266       .  A
C96        C4649   1.484       .  S
Cd97        O104   2.428       .  S
Cd97        O103   2.454       .  S
Cd97        O102   2.445       .  S
Cd97         O98   2.480       .  S
Cd97        O101   2.475       .  S
Cd97         O99   2.468       .  S
C100        O104   1.263       .  A
C100       C4700   1.489       .  S
O105        C108   1.266       .  A
O105       Cd110   2.470       .  S
C106        O115   1.265       .  A
C106        O111   1.268       .  A
C106       C4609   1.482       .  S
O107        C113   1.269       .  A
O107       Cd110   2.510       .  S
C108        O116   1.264       .  A
C108       C4640   1.490       .  S
C109        O114   1.265       .  A
C109        O112   1.265       .  A
C109       C4589   1.487       .  S
Cd110       O117   2.404       .  S
Cd110       O116   2.480       .  S
Cd110       O115   2.438       .  S
Cd110       O111   2.485       .  S
Cd110       O114   2.474       .  S
Cd110       O112   2.472       .  S
C113        O117   1.263       .  A
C113       C4729   1.483       .  S
O118        C121   1.264       .  A
O118       Cd123   2.471       .  S
C119        O128   1.262       .  A
C119        O124   1.270       .  A
C119       C4689   1.489       .  S
O120        C126   1.268       .  A
O120       Cd123   2.494       .  S
C121        O129   1.266       .  A
C121       C4629   1.494       .  S
C122        O127   1.265       .  A
C122        O125   1.265       .  A
C122       C4549   1.490       .  S
Cd123       O130   2.424       .  S
Cd123       O129   2.498       .  S
Cd123       O128   2.424       .  S
Cd123       O124   2.504       .  S
Cd123       O127   2.468       .  S
Cd123       O125   2.478       .  S
C126        O130   1.261       .  A
C126       C4569   1.478       .  S
O131        C134   1.265       .  A
O131       Cd136   2.482       .  S
C132        O141   1.267       .  A
C132        O137   1.268       .  A
C132       C4580   1.489       .  S
O133        C139   1.267       .  A
O133       Cd136   2.495       .  S
C134        O142   1.265       .  A
C134       C4529   1.493       .  S
C135        O140   1.265       .  A
C135        O138   1.265       .  A
C135       C4509   1.485       .  S
Cd136       O143   2.441       .  S
Cd136       O142   2.477       .  S
Cd136       O141   2.444       .  S
Cd136       O137   2.475       .  S
Cd136       O140   2.473       .  S
Cd136       O138   2.468       .  S
C139        O143   1.263       .  A
C139       C4680   1.477       .  S
O144        C147   1.267       .  A
O144       Cd149   2.474       .  S
C145        O154   1.264       .  A
C145        O150   1.269       .  A
C145       C4780   1.479       .  S
O146        C152   1.269       .  A
O146       Cd149   2.513       .  S
C147        O155   1.266       .  A
C147       C4540   1.490       .  S
C148        O153   1.266       .  A
C148        O151   1.265       .  A
C148       C4489   1.492       .  S
Cd149       O156   2.418       .  S
Cd149       O155   2.484       .  S
Cd149       O154   2.439       .  S
Cd149       O150   2.469       .  S
Cd149       O153   2.493       .  S
Cd149       O151   2.492       .  S
C152        O156   1.260       .  A
C152       C4620   1.476       .  S
O157        C160   1.266       .  A
O157       Cd162   2.489       .  S
C158        O167   1.264       .  A
C158        O163   1.268       .  A
C158       C4429   1.478       .  S
O159        C165   1.268       .  A
O159       Cd162   2.503       .  S
C160        O168   1.265       .  A
C160       C4449   1.491       .  S
C161        O166   1.263       .  A
C161        O164   1.268       .  A
C161       C4420   1.492       .  S
Cd162       O169   2.405       .  S
Cd162       O168   2.471       .  S
Cd162       O167   2.450       .  S
Cd162       O163   2.473       .  S
Cd162       O166   2.456       .  S
Cd162       O164   2.496       .  S
C165        O169   1.260       .  A
C165       C4480   1.476       .  S
O170        C173   1.265       .  A
O170       Cd175   2.464       .  S
C171        O180   1.264       .  A
C171        O176   1.271       .  A
C171       C4380   1.484       .  S
O172        C178   1.259       .  A
O172       Cd175   2.421       .  S
C173        O181   1.265       .  A
C173       C4460   1.489       .  S
C174        O179   1.265       .  A
C174        O177   1.265       .  A
C174       C4360   1.491       .  S
Cd175       O182   2.502       .  S
Cd175       O181   2.512       .  S
Cd175       O180   2.427       .  S
Cd175       O176   2.495       .  S
Cd175       O179   2.473       .  S
Cd175       O177   2.491       .  S
C178        O182   1.267       .  A
C178       C4389   1.476       .  S
O183        C186   1.264       .  A
O183       Cd188   2.469       .  S
C184        O193   1.266       .  A
C184        O189   1.269       .  A
C184       C4320   1.483       .  S
O185        C191   1.266       .  A
O185       Cd188   2.491       .  S
C186        O194   1.266       .  A
C186       C4329   1.492       .  S
C187        O192   1.265       .  A
C187        O190   1.264       .  A
C187       C4300   1.492       .  S
Cd188       O195   2.433       .  S
Cd188       O194   2.483       .  S
Cd188       O193   2.420       .  S
Cd188       O189   2.493       .  S
Cd188       O192   2.481       .  S
Cd188       O190   2.485       .  S
C191        O195   1.262       .  A
C191       C4440   1.475       .  S
O196        C199   1.268       .  A
O196       Cd201   2.492       .  S
C197        O206   1.265       .  A
C197        O202   1.268       .  A
C197       C4400   1.482       .  S
O198        C204   1.268       .  A
O198       Cd201   2.493       .  S
C199        O207   1.264       .  A
C199       C4340   1.490       .  S
C200        O205   1.267       .  A
C200        O203   1.266       .  A
C200       C4249   1.488       .  S
Cd201       O208   2.425       .  S
Cd201       O207   2.458       .  S
Cd201       O206   2.445       .  S
Cd201       O202   2.475       .  S
Cd201       O205   2.460       .  S
Cd201       O203   2.473       .  S
C204        O208   1.263       .  A
C204       C4269   1.480       .  S
O209        C212   1.265       .  A
O209       Cd214   2.476       .  S
C210        O219   1.264       .  A
C210        O215   1.271       .  A
C210       C4280   1.484       .  S
O211        C217   1.265       .  A
O211       Cd214   2.492       .  S
C212        O220   1.265       .  A
C212       C4229   1.487       .  S
C213        O218   1.264       .  A
C213        O216   1.266       .  A
C213       C4209   1.485       .  S
Cd214       O221   2.423       .  S
Cd214       O220   2.461       .  S
Cd214       O219   2.429       .  S
Cd214       O215   2.489       .  S
Cd214       O218   2.452       .  S
Cd214       O216   2.482       .  S
C217        O221   1.262       .  A
C217       C4369   1.477       .  S
O222        C225   1.267       .  A
O222       Cd227   2.491       .  S
C223        O232   1.265       .  A
C223        O228   1.269       .  A
C223       C4469   1.481       .  S
O224        C230   1.268       .  A
O224       Cd227   2.499       .  S
C225        O233   1.263       .  A
C225       C4240   1.488       .  S
C226        O231   1.263       .  A
C226        O229   1.266       .  A
C226       C4189   1.490       .  S
Cd227       O234   2.424       .  S
Cd227       O233   2.458       .  S
Cd227       O232   2.431       .  S
Cd227       O228   2.476       .  S
Cd227       O231   2.458       .  S
Cd227       O229   2.491       .  S
C230        O234   1.263       .  A
C230       C4309   1.473       .  S
O235        C238   1.263       .  A
O235       Cd240   2.457       .  S
C236        O245   1.266       .  A
C236        O241   1.267       .  A
C236       C4129   1.487       .  S
O237        C243   1.266       .  A
O237       Cd240   2.501       .  S
C238        O246   1.267       .  A
C238       C4149   1.492       .  S
C239        O244   1.265       .  A
C239        O242   1.263       .  A
C239       C4120   1.488       .  S
Cd240       O247   2.432       .  S
Cd240       O246   2.491       .  S
Cd240       O245   2.440       .  S
Cd240       O241   2.470       .  S
Cd240       O244   2.479       .  S
Cd240       O242   2.474       .  S
C243        O247   1.258       .  A
C243       C4169   1.485       .  S
O248        C251   1.267       .  A
O248       Cd253   2.493       .  S
C249        O258   1.264       .  A
C249        O254   1.269       .  A
C249       C4069   1.482       .  S
O250        C256   1.268       .  A
O250       Cd253   2.508       .  S
C251        O259   1.263       .  A
C251       C4160   1.493       .  S
C252        O257   1.265       .  A
C252        O255   1.266       .  A
C252       C4500   1.488       .  S
Cd253       O260   2.420       .  S
Cd253       O259   2.460       .  S
Cd253       O258   2.441       .  S
Cd253       O254   2.474       .  S
Cd253       O257   2.472       .  S
Cd253       O255   2.490       .  S
C256        O260   1.262       .  A
C256       C4100   1.476       .  S
O261        C264   1.267       .  A
O261       Cd266   2.453       .  S
C262        O271   1.264       .  A
C262        O267   1.267       .  A
C262       C4029   1.488       .  S
O263        C269   1.264       .  A
O263       Cd266   2.438       .  S
C264        O272   1.265       .  A
C264       C4180   1.479       .  S
C265        O270   1.264       .  A
C265        O268   1.266       .  A
C265       C4049   1.479       .  S
Cd266       O273   2.461       .  S
Cd266       O272   2.429       .  S
Cd266       O271   2.444       .  S
Cd266       O267   2.471       .  S
Cd266       O270   2.421       .  S
Cd266       O268   2.493       .  S
C269        O273   1.266       .  A
C269       C4260   1.482       .  S
O274        C277   1.264       .  A
O274       Cd279   2.465       .  S
C275        O284   1.263       .  A
C275        O280   1.268       .  A
C275       C4009   1.478       .  S
O276        C282   1.266       .  A
O276       Cd279   2.491       .  S
C277        O285   1.266       .  A
C277       C4040   1.489       .  S
C278        O283   1.264       .  A
C278        O281   1.265       .  A
C278       C3989   1.486       .  S
Cd279       O286   2.425       .  S
Cd279       O285   2.466       .  S
Cd279       O284   2.424       .  S
Cd279       O280   2.487       .  S
Cd279       O283   2.444       .  S
Cd279       O281   2.489       .  S
C282        O286   1.264       .  A
C282       C4080   1.484       .  S
O287        C290   1.265       .  A
O287       Cd292   2.471       .  S
C288        O297   1.263       .  A
C288        O293   1.267       .  A
C288       C4060   1.476       .  S
O289        C295   1.267       .  A
O289       Cd292   2.500       .  S
C290        O298   1.266       .  A
C290       C3969   1.483       .  S
C291        O296   1.263       .  A
C291        O294   1.269       .  A
C291       C3949   1.486       .  S
Cd292       O299   2.413       .  S
Cd292       O298   2.464       .  S
Cd292       O297   2.445       .  S
Cd292       O293   2.479       .  S
Cd292       O296   2.436       .  S
Cd292       O294   2.474       .  S
C295        O299   1.261       .  A
C295       C4140   1.475       .  S
O300        C303   1.266       .  A
O300       Cd305   2.472       .  S
C301        O310   1.267       .  A
C301        O306   1.269       .  A
C301       C4089   1.488       .  S
O302        C308   1.263       .  A
O302       Cd305   2.411       .  S
C303        O311   1.265       .  A
C303       C3980   1.490       .  S
C304        O309   1.268       .  A
C304        O307   1.265       .  A
C304       C3940   1.484       .  S
Cd305       O312   2.516       .  S
Cd305       O311   2.468       .  S
Cd305       O310   2.445       .  S
Cd305       O306   2.477       .  S
Cd305       O309   2.472       .  S
Cd305       O307   2.464       .  S
C308        O312   1.268       .  A
C308       C4020   1.488       .  S
O313        C316   1.267       .  A
O313       Cd318   2.478       .  S
C314        O323   1.264       .  A
C314        O319   1.266       .  A
C314       C3880   1.477       .  S
O315        C321   1.269       .  A
O315       Cd318   2.502       .  S
C316        O324   1.266       .  A
C316       C3889   1.488       .  S
C317        O322   1.267       .  A
C317        O320   1.265       .  A
C317       C3849   1.488       .  S
Cd318       O325   2.415       .  S
Cd318       O324   2.468       .  S
Cd318       O323   2.459       .  S
Cd318       O319   2.464       .  S
Cd318       O322   2.473       .  S
Cd318       O320   2.474       .  S
C321        O325   1.264       .  A
C321       C3909   1.483       .  S
O326        C329   1.267       .  A
O326       Cd331   2.460       .  S
C327        O336   1.263       .  A
C327        O332   1.267       .  A
C327       C3809   1.475       .  S
O328        C334   1.271       .  A
O328       Cd331   2.519       .  S
C329        O337   1.267       .  A
C329       C3900   1.481       .  S
C330        O335   1.267       .  A
C330        O333   1.265       .  A
C330       C4200   1.482       .  S
Cd331       O338   2.393       .  S
Cd331       O337   2.451       .  S
Cd331       O336   2.423       .  S
Cd331       O332   2.488       .  S
Cd331       O335   2.451       .  S
Cd331       O333   2.478       .  S
C334        O338   1.262       .  A
C334       C3840   1.477       .  S
O339        C342   1.267       .  A
O339       Cd344   2.459       .  S
C340        O349   1.264       .  A
C340        O345   1.269       .  A
C340       C3769   1.479       .  S
O341        C347   1.272       .  A
O341       Cd344   2.495       .  S
C342        O350   1.267       .  A
C342       C3789   1.490       .  S
C343        O348   1.264       .  A
C343        O346   1.270       .  A
C343       C3760   1.488       .  S
Cd344       O351   2.404       .  S
Cd344       O350   2.457       .  S
Cd344       O349   2.429       .  S
Cd344       O345   2.472       .  S
Cd344       O348   2.440       .  S
Cd344       O346   2.469       .  S
C347        O351   1.262       .  A
C347       C3820   1.481       .  S
O352        C355   1.269       .  A
O352       Cd357   2.464       .  S
C353        O362   1.261       .  A
C353        O358   1.267       .  A
C353       C3920   1.487       .  S
O354        C360   1.267       .  A
O354       Cd357   2.496       .  S
C355        O363   1.266       .  A
C355       C3800   1.488       .  S
C356        O361   1.264       .  A
C356        O359   1.266       .  A
C356       C3709   1.487       .  S
Cd357       O364   2.426       .  S
Cd357       O363   2.465       .  S
Cd357       O362   2.438       .  S
Cd357       O358   2.513       .  S
Cd357       O361   2.466       .  S
Cd357       O359   2.474       .  S
C360        O364   1.261       .  A
C360       C3729   1.472       .  S
O365        C368   1.264       .  A
O365       Cd370   2.473       .  S
C366        O375   1.269       .  A
C366        O371   1.265       .  A
C366       C3740   1.477       .  S
O367        C373   1.261       .  A
O367       Cd370   2.414       .  S
C368        O376   1.265       .  A
C368       C3689   1.492       .  S
C369        O374   1.265       .  A
C369        O372   1.265       .  A
C369       C3680   1.486       .  S
Cd370       O377   2.505       .  S
Cd370       O376   2.479       .  S
Cd370       O375   2.464       .  S
Cd370       O371   2.447       .  S
Cd370       O374   2.463       .  S
Cd370       O372   2.459       .  S
C373        O377   1.268       .  A
C373       C3869   1.473       .  S
O378        C381   1.268       .  A
O378       Cd383   2.467       .  S
C379        O388   1.265       .  A
C379        O384   1.269       .  A
C379       C3829   1.482       .  S
O380        C386   1.271       .  A
O380       Cd383   2.506       .  S
C381        O389   1.266       .  A
C381       C3700   1.488       .  S
C382        O387   1.269       .  A
C382        O385   1.265       .  A
C382       C3649   1.485       .  S
Cd383       O390   2.401       .  S
Cd383       O389   2.477       .  S
Cd383       O388   2.436       .  S
Cd383       O384   2.477       .  S
Cd383       O387   2.475       .  S
Cd383       O385   2.452       .  S
C386        O390   1.262       .  A
C386       C3780   1.478       .  S
O391        C394   1.264       .  A
O391       Cd396   2.451       .  S
C392        O401   1.266       .  A
C392        O397   1.268       .  A
C392       C3589   1.478       .  S
O393        C399   1.262       .  A
O393       Cd396   2.425       .  S
C394        O402   1.266       .  A
C394       C3609   1.481       .  S
C395        O400   1.266       .  A
C395        O398   1.263       .  A
C395       C3569   1.487       .  S
Cd396       O403   2.509       .  S
Cd396       O402   2.469       .  S
Cd396       O401   2.440       .  S
Cd396       O397   2.475       .  S
Cd396       O400   2.474       .  S
Cd396       O398   2.466       .  S
C399        O403   1.266       .  A
C399       C3640   1.484       .  S
O404        C407   1.267       .  A
O404       Cd409   2.483       .  S
C405        O414   1.264       .  A
C405        O410   1.267       .  A
C405       C3620   1.486       .  S
O406        C412   1.265       .  A
O406       Cd409   2.489       .  S
C407        O415   1.264       .  A
C407       C3540   1.490       .  S
C408        O413   1.263       .  A
C408        O411   1.261       .  A
C408       C3560   1.481       .  S
Cd409       O416   2.462       .  S
Cd409       O415   2.462       .  S
Cd409       O414   2.463       .  S
Cd409       O410   2.461       .  S
Cd409       O413   2.477       .  S
Cd409       O411   2.456       .  S
C412        O416   1.263       .  A
C412       C3509   1.491       .  S
O417        C420   1.264       .  A
O417       Cd422   2.443       .  S
C418        O427   1.266       .  A
C418        O423   1.267       .  A
C418       C3469   1.487       .  S
O419        C425   1.263       .  A
O419       Cd422   2.439       .  S
C420        O428   1.267       .  A
C420       C3500   1.485       .  S
C421        O426   1.265       .  A
C421        O424   1.265       .  A
C421       C4800   1.484       .  S
Cd422       O429   2.487       .  S
Cd422       O428   2.481       .  S
Cd422       O427   2.453       .  S
Cd422       O423   2.479       .  S
Cd422       O426   2.474       .  S
Cd422       O424   2.464       .  S
C425        O429   1.264       .  A
C425       C3529   1.483       .  S
O430        C433   1.267       .  A
O430       Cd435   2.482       .  S
C431        O440   1.264       .  A
C431        O436   1.271       .  A
C431       C3629   1.483       .  S
O432        C438   1.268       .  A
O432       Cd435   2.506       .  S
C433        O441   1.263       .  A
C433       C3489   1.487       .  S
C434        O439   1.267       .  A
C434        O437   1.264       .  A
C434       C3720   1.489       .  S
Cd435       O442   2.438       .  S
Cd435       O441   2.460       .  S
Cd435       O440   2.419       .  S
Cd435       O436   2.484       .  S
Cd435       O439   2.463       .  S
Cd435       O437   2.474       .  S
C438        O442   1.262       .  A
C438       C3449   1.479       .  S
O443        C446   1.267       .  A
O443       Cd448   2.444       .  S
C444        O453   1.266       .  A
C444        O449   1.267       .  A
C444       C3460   1.486       .  S
O445        C451   1.269       .  A
O445       Cd448   2.515       .  S
C446        O454   1.265       .  A
C446       C3429   1.487       .  S
C447        O452   1.268       .  A
C447        O450   1.263       .  A
C447       C3409   1.485       .  S
Cd448       O455   2.394       .  S
Cd448       O454   2.469       .  S
Cd448       O453   2.433       .  S
Cd448       O449   2.468       .  S
Cd448       O452   2.475       .  S
Cd448       O450   2.443       .  S
C451        O455   1.262       .  A
C451       C3600   1.480       .  S
O456        C459   1.264       .  A
O456       Cd461   2.452       .  S
C457        O466   1.265       .  A
C457        O462   1.267       .  A
C457       C3549   1.475       .  S
O458        C464   1.261       .  A
O458       Cd461   2.443       .  S
C459        O467   1.267       .  A
C459       C3440   1.484       .  S
C460        O465   1.265       .  A
C460        O463   1.264       .  A
C460       C3389   1.485       .  S
Cd461       O468   2.501       .  S
Cd461       O467   2.470       .  S
Cd461       O466   2.433       .  S
Cd461       O462   2.460       .  S
Cd461       O465   2.452       .  S
Cd461       O463   2.482       .  S
C464        O468   1.266       .  A
C464       C3480   1.479       .  S
O469        C472   1.267       .  A
O469       Cd474   2.472       .  S
C470        O479   1.266       .  A
C470        O475   1.267       .  A
C470       C3329   1.482       .  S
O471        C477   1.267       .  A
O471       Cd474   2.518       .  S
C472        O480   1.265       .  A
C472       C3349   1.487       .  S
C473        O478   1.265       .  A
C473        O476   1.265       .  A
C473       C3580   1.489       .  S
Cd474       O481   2.423       .  S
Cd474       O480   2.464       .  S
Cd474       O479   2.445       .  S
Cd474       O475   2.461       .  S
Cd474       O478   2.470       .  S
Cd474       O476   2.472       .  S
C477        O481   1.261       .  A
C477       C3369   1.480       .  S
O482        C485   1.265       .  A
O482       Cd487   2.458       .  S
C483        O492   1.266       .  A
C483        O488   1.269       .  A
C483       C3289   1.481       .  S
O484        C490   1.268       .  A
O484       Cd487   2.498       .  S
C485        O493   1.265       .  A
C485       C3360   1.488       .  S
C486        O491   1.264       .  A
C486        O489   1.267       .  A
C486       C3929   1.492       .  S
Cd487       O494   2.426       .  S
Cd487       O493   2.458       .  S
Cd487       O492   2.428       .  S
Cd487       O488   2.482       .  S
Cd487       O491   2.462       .  S
Cd487       O489   2.482       .  S
C490        O494   1.261       .  A
C490       C3309   1.477       .  S
O495        C498   1.264       .  A
O495       Cd500   2.451       .  S
C496        O505   1.265       .  A
C496        O501   1.267       .  A
C496       C3249   1.483       .  S
O497        C503   1.266       .  A
O497       Cd500   2.493       .  S
C498        O506   1.266       .  A
C498       C3269   1.481       .  S
C499        O504   1.264       .  A
C499        O502   1.263       .  A
C499       C3669   1.488       .  S
Cd500       O507   2.429       .  S
Cd500       O506   2.458       .  S
Cd500       O505   2.409       .  S
Cd500       O501   2.479       .  S
Cd500       O504   2.457       .  S
Cd500       O502   2.478       .  S
C503        O507   1.261       .  A
C503       C3340   1.480       .  S
O508        C511   1.266       .  A
O508       Cd513   2.463       .  S
C509        O518   1.267       .  A
C509        O514   1.267       .  A
C509       C3320   1.487       .  S
O510        C516   1.267       .  A
O510       Cd513   2.514       .  S
C511        O519   1.264       .  A
C511       C3280   1.489       .  S
C512        O517   1.264       .  A
C512        O515   1.264       .  A
C512       C4709   1.484       .  S
Cd513       O520   2.425       .  S
Cd513       O519   2.469       .  S
Cd513       O518   2.446       .  S
Cd513       O514   2.461       .  S
Cd513       O517   2.474       .  S
Cd513       O515   2.477       .  S
C516        O520   1.261       .  A
C516       C3229   1.484       .  S
O521        C524   1.266       .  A
O521       Cd526   2.473       .  S
C522        O531   1.267       .  A
C522        O527   1.270       .  A
C522       C3240   1.483       .  S
O523        C529   1.268       .  A
O523       Cd526   2.521       .  S
C524        O532   1.264       .  A
C524       C3220   1.492       .  S
C525        O530   1.267       .  A
C525        O528   1.263       .  A
C525       C3200   1.476       .  S
Cd526       O533   2.421       .  S
Cd526       O532   2.490       .  S
Cd526       O531   2.460       .  S
Cd526       O527   2.462       .  S
Cd526       O530   2.499       .  S
Cd526       O528   2.454       .  S
C529        O533   1.260       .  A
C529       C3300   1.479       .  S
O534        C537   1.265       .  A
O534       Cd539   2.474       .  S
C535        O544   1.264       .  A
C535        O540   1.269       .  A
C535       C3380   1.481       .  S
O536        C542   1.262       .  A
O536       Cd539   2.407       .  S
C537        O545   1.266       .  A
C537       C3209   1.497       .  S
C538        O543   1.264       .  A
C538        O541   1.267       .  A
C538       C3169   1.492       .  S
Cd539       O546   2.489       .  S
Cd539       O545   2.496       .  S
Cd539       O544   2.439       .  S
Cd539       O540   2.495       .  S
Cd539       O543   2.473       .  S
Cd539       O541   2.479       .  S
C542        O546   1.268       .  A
C542       C3260   1.476       .  S
O547        C550   1.266       .  A
O547       Cd552   2.475       .  S
C548        O557   1.263       .  A
C548        O553   1.269       .  A
C548       C3109   1.484       .  S
O549        C555   1.262       .  A
O549       Cd552   2.414       .  S
C550        O558   1.265       .  A
C550       C3129   1.488       .  S
C551        O556   1.264       .  A
C551        O554   1.263       .  A
C551       C3089   1.488       .  S
Cd552       O559   2.478       .  S
Cd552       O558   2.471       .  S
Cd552       O557   2.431       .  S
Cd552       O553   2.468       .  S
Cd552       O556   2.461       .  S
Cd552       O554   2.473       .  S
C555        O559   1.267       .  A
C555       C3149   1.480       .  S
O560        C563   1.268       .  A
O560       Cd565   2.486       .  S
C561        O570   1.264       .  A
C561        O566   1.270       .  A
C561       C3049   1.482       .  S
O562        C568   1.267       .  A
O562       Cd565   2.498       .  S
C563        O571   1.263       .  A
C563       C3140   1.493       .  S
C564        O569   1.264       .  A
C564        O567   1.267       .  A
C564       C4289   1.494       .  S
Cd565       O572   2.437       .  S
Cd565       O571   2.461       .  S
Cd565       O570   2.425       .  S
Cd565       O566   2.483       .  S
Cd565       O569   2.465       .  S
Cd565       O567   2.492       .  S
C568        O572   1.264       .  A
C568       C3069   1.483       .  S
O573        C576   1.263       .  A
O573       Cd578   2.456       .  S
C574        O583   1.265       .  A
C574        O579   1.266       .  A
C574       C3009   1.477       .  S
O575        C581   1.268       .  A
O575       Cd578   2.500       .  S
C576        O584   1.267       .  A
C576       C3029   1.489       .  S
C577        O582   1.264       .  A
C577        O580   1.265       .  A
C577       C4820   1.486       .  S
Cd578       O585   2.412       .  S
Cd578       O584   2.472       .  S
Cd578       O583   2.447       .  S
Cd578       O579   2.464       .  S
Cd578       O582   2.465       .  S
Cd578       O580   2.475       .  S
C581        O585   1.263       .  A
C581       C3120   1.484       .  S
O586        C589   1.267       .  A
O586       Cd591   2.476       .  S
C587        O596   1.265       .  A
C587        O592   1.270       .  A
C587       C3080   1.486       .  S
O588        C594   1.261       .  A
O588       Cd591   2.408       .  S
C589        O597   1.263       .  A
C589       C3040   1.491       .  S
C590        O595   1.264       .  A
C590        O593   1.266       .  A
C590       C3749   1.488       .  S
Cd591       O598   2.496       .  S
Cd591       O597   2.466       .  S
Cd591       O596   2.444       .  S
Cd591       O592   2.472       .  S
Cd591       O595   2.467       .  S
Cd591       O593   2.463       .  S
C594        O598   1.266       .  A
C594       C2989   1.472       .  S
O599        C602   1.263       .  A
O599       Cd604   2.450       .  S
C600        O609   1.265       .  A
C600        O605   1.270       .  A
C600       C3160   1.474       .  S
O601        C607   1.266       .  A
O601       Cd604   2.498       .  S
C602        O610   1.265       .  A
C602       C2969   1.485       .  S
C603        O608   1.264       .  A
C603        O606   1.266       .  A
C603       C2949   1.486       .  S
Cd604       O611   2.431       .  S
Cd604       O610   2.464       .  S
Cd604       O609   2.421       .  S
Cd604       O605   2.468       .  S
Cd604       O608   2.452       .  S
Cd604       O606   2.461       .  S
C607        O611   1.260       .  A
C607       C3020   1.475       .  S
O612        C615   1.265       .  A
O612       Cd617   2.444       .  S
C613        O622   1.265       .  A
C613        O618   1.268       .  A
C613       C3000   1.480       .  S
O614        C620   1.268       .  A
O614       Cd617   2.497       .  S
C615        O623   1.263       .  A
C615       C2980   1.481       .  S
C616        O621   1.266       .  A
C616        O619   1.263       .  A
C616       C2929   1.479       .  S
Cd617       O624   2.406       .  S
Cd617       O623   2.458       .  S
Cd617       O622   2.438       .  S
Cd617       O618   2.466       .  S
Cd617       O621   2.451       .  S
Cd617       O619   2.449       .  S
C620        O624   1.263       .  A
C620       C3060   1.474       .  S
O625        C628   1.265       .  A
O625       Cd630   2.483       .  S
C626        O635   1.267       .  A
C626        O631   1.267       .  A
C626       C2869   1.488       .  S
O627        C633   1.270       .  A
O627       Cd630   2.536       .  S
C628        O636   1.265       .  A
C628       C2889   1.491       .  S
C629        O634   1.266       .  A
C629        O632   1.265       .  A
C629       C3860   1.495       .  S
Cd630       O637   2.408       .  S
Cd630       O636   2.465       .  S
Cd630       O635   2.444       .  S
Cd630       O631   2.471       .  S
Cd630       O634   2.490       .  S
Cd630       O632   2.485       .  S
C633        O637   1.260       .  A
C633       C2909   1.482       .  S
O638        C641   1.267       .  A
O638       Cd643   2.474       .  S
C639        O648   1.264       .  A
C639        O644   1.269       .  A
C639       C2829   1.481       .  S
O640        C646   1.268       .  A
O640       Cd643   2.508       .  S
C641        O649   1.265       .  A
C641       C2900   1.492       .  S
C642        O647   1.266       .  A
C642        O645   1.266       .  A
C642       C2820   1.492       .  S
Cd643       O650   2.395       .  S
Cd643       O649   2.477       .  S
Cd643       O648   2.443       .  S
Cd643       O644   2.482       .  S
Cd643       O647   2.463       .  S
Cd643       O645   2.486       .  S
C646        O650   1.261       .  A
C646       C2849   1.475       .  S
O651        C654   1.266       .  A
O651       Cd656   2.471       .  S
C652        O661   1.266       .  A
C652        O657   1.263       .  A
C652       C2769   1.485       .  S
O653        C659   1.263       .  A
O653       Cd656   2.462       .  S
C654        O662   1.263       .  A
C654       C2800   1.491       .  S
C655        O660   1.266       .  A
C655        O658   1.265       .  A
C655       C2749   1.490       .  S
Cd656       O663   2.490       .  S
Cd656       O662   2.471       .  S
Cd656       O661   2.468       .  S
Cd656       O657   2.460       .  S
Cd656       O660   2.465       .  S
Cd656       O658   2.491       .  S
C659        O663   1.263       .  A
C659       C2840   1.489       .  S
O664        C667   1.263       .  A
O664       Cd669   2.452       .  S
C665        O674   1.266       .  A
C665        O670   1.267       .  A
C665       C2920   1.488       .  S
O666        C672   1.268       .  A
O666       Cd669   2.513       .  S
C667        O675   1.267       .  A
C667       C2789   1.491       .  S
C668        O673   1.267       .  A
C668        O671   1.264       .  A
C668       C3180   1.494       .  S
Cd669       O676   2.413       .  S
Cd669       O675   2.489       .  S
Cd669       O674   2.436       .  S
Cd669       O670   2.485       .  S
Cd669       O673   2.482       .  S
Cd669       O671   2.475       .  S
C672        O676   1.262       .  A
C672       C2729   1.482       .  S
O677        C680   1.265       .  A
O677       Cd682   2.469       .  S
C678        O687   1.264       .  A
C678        O683   1.271       .  A
C678       C2740   1.481       .  S
O679        C685   1.268       .  A
O679       Cd682   2.491       .  S
C680        O688   1.265       .  A
C680       C2709   1.486       .  S
C681        O686   1.265       .  A
C681        O684   1.266       .  A
C681       C3420   1.481       .  S
Cd682       O689   2.412       .  S
Cd682       O688   2.453       .  S
Cd682       O687   2.414       .  S
Cd682       O683   2.481       .  S
Cd682       O686   2.453       .  S
Cd682       O684   2.460       .  S
C685        O689   1.262       .  A
C685       C2880   1.472       .  S
O690        C693   1.270       .  A
O690       Cd695   2.452       .  S
C691        O700   1.263       .  A
C691        O696   1.267       .  A
C691       C2860   1.480       .  S
O692        C698   1.266       .  A
O692       Cd695   2.489       .  S
C693        O701   1.266       .  A
C693       C2720   1.484       .  S
C694        O699   1.266       .  A
C694        O697   1.263       .  A
C694       C2689   1.487       .  S
Cd695       O702   2.465       .  S
Cd695       O701   2.442       .  S
Cd695       O700   2.420       .  S
Cd695       O696   2.501       .  S
Cd695       O699   2.478       .  S
Cd695       O697   2.480       .  S
C698        O702   1.260       .  A
C698       C2780   1.488       .  S
O703        C706   1.263       .  A
O703       Cd708   2.442       .  S
C704        O713   1.265       .  A
C704        O709   1.268       .  A
C704       C2640   1.483       .  S
O705        C711   1.262       .  A
O705       Cd708   2.395       .  S
C706        O714   1.266       .  A
C706       C2649   1.485       .  S
C707        O712   1.265       .  A
C707        O710   1.265       .  A
C707       C4109   1.484       .  S
Cd708       O715   2.505       .  S
Cd708       O714   2.467       .  S
Cd708       O713   2.450       .  S
Cd708       O709   2.460       .  S
Cd708       O712   2.460       .  S
Cd708       O710   2.437       .  S
C711        O715   1.268       .  A
C711       C2669   1.475       .  S
O716        C719   1.267       .  A
O716       Cd721   2.459       .  S
C717        O726   1.264       .  A
C717        O722   1.268       .  A
C717       C2589   1.480       .  S
O718        C724   1.266       .  A
O718       Cd721   2.482       .  S
C719        O727   1.264       .  A
C719       C2660   1.487       .  S
C720        O725   1.264       .  A
C720        O723   1.267       .  A
C720       C2569   1.489       .  S
Cd721       O728   2.438       .  S
Cd721       O727   2.464       .  S
Cd721       O726   2.411       .  S
Cd721       O722   2.492       .  S
Cd721       O725   2.448       .  S
Cd721       O723   2.473       .  S
C724        O728   1.264       .  A
C724       C2609   1.482       .  S
O729        C732   1.267       .  A
O729       Cd734   2.475       .  S
C730        O739   1.264       .  A
C730        O735   1.267       .  A
C730       C2549   1.487       .  S
O731        C737   1.265       .  A
O731       Cd734   2.460       .  S
C732        O740   1.266       .  A
C732       C2540   1.486       .  S
C733        O738   1.267       .  A
C733        O736   1.261       .  A
C733       C2600   1.472       .  S
Cd734       O741   2.472       .  S
Cd734       O740   2.433       .  S
Cd734       O739   2.465       .  S
Cd734       O735   2.466       .  S
Cd734       O738   2.500       .  S
Cd734       O736   2.415       .  S
C737        O741   1.265       .  A
C737       C2509   1.488       .  S
O742        C745   1.268       .  A
O742       Cd747   2.478       .  S
C743        O752   1.266       .  A
C743        O748   1.265       .  A
C743       C2560   1.486       .  S
O744        C750   1.264       .  A
O744       Cd747   2.467       .  S
C745        O753   1.264       .  A
C745       C2680   1.477       .  S
C746        O751   1.266       .  A
C746        O749   1.262       .  A
C746       C2489   1.484       .  S
Cd747       O754   2.488       .  S
Cd747       O753   2.424       .  S
Cd747       O752   2.463       .  S
Cd747       O748   2.466       .  S
Cd747       O751   2.506       .  S
Cd747       O749   2.446       .  S
C750        O754   1.266       .  A
C750       C2469   1.492       .  S
O755        C758   1.264       .  A
O755       Cd760   2.463       .  S
C756        O765   1.263       .  A
C756        O761   1.269       .  A
C756       C2500   1.474       .  S
O757        C763   1.268       .  A
O757       Cd760   2.505       .  S
C758        O766   1.266       .  A
C758       C2449   1.487       .  S
C759        O764   1.263       .  A
C759        O762   1.267       .  A
C759       C4220   1.486       .  S
Cd760       O767   2.418       .  S
Cd760       O766   2.465       .  S
Cd760       O765   2.412       .  S
Cd760       O761   2.486       .  S
Cd760       O764   2.448       .  S
Cd760       O762   2.480       .  S
C763        O767   1.263       .  A
C763       C2629   1.480       .  S
O768        C771   1.269       .  A
O768       Cd773   2.461       .  S
C769        O778   1.264       .  A
C769        O774   1.271       .  A
C769       C2620   1.484       .  S
O770        C776   1.271       .  A
O770       Cd773   2.500       .  S
C771        O779   1.264       .  A
C771       C2460   1.485       .  S
C772        O777   1.268       .  A
C772        O775   1.266       .  A
C772       C2809   1.484       .  S
Cd773       O780   2.402       .  S
Cd773       O779   2.438       .  S
Cd773       O778   2.418       .  S
Cd773       O774   2.464       .  S
Cd773       O777   2.472       .  S
Cd773       O775   2.448       .  S
C776        O780   1.261       .  A
C776       C2529   1.477       .  S
O781        C784   1.268       .  A
O781       Cd786   2.475       .  S
C782        O791   1.265       .  A
C782        O787   1.270       .  A
C782       C2389   1.487       .  S
O783        C789   1.269       .  A
O783       Cd786   2.492       .  S
C784        O792   1.266       .  A
C784       C2409   1.489       .  S
C785        O790   1.268       .  A
C785        O788   1.266       .  A
C785       C2369   1.489       .  S
Cd786       O793   2.404       .  S
Cd786       O792   2.454       .  S
Cd786       O791   2.423       .  S
Cd786       O787   2.495       .  S
Cd786       O790   2.450       .  S
Cd786       O788   2.463       .  S
C789        O793   1.263       .  A
C789       C2429   1.478       .  S
O794        C797   1.266       .  A
O794       Cd799   2.468       .  S
C795        O804   1.265       .  A
C795        O800   1.270       .  A
C795       C2329   1.478       .  S
O796        C802   1.262       .  A
O796       Cd799   2.417       .  S
C797        O805   1.265       .  A
C797       C2420   1.488       .  S
C798        O803   1.268       .  A
C798        O801   1.263       .  A
C798       C3189   1.479       .  S
Cd799       O806   2.515       .  S
Cd799       O805   2.469       .  S
Cd799       O804   2.418       .  S
Cd799       O800   2.468       .  S
Cd799       O803   2.505       .  S
Cd799       O801   2.457       .  S
C802        O806   1.269       .  A
C802       C2349   1.483       .  S
O807        C810   1.267       .  A
O807       Cd812   2.483       .  S
C808        O817   1.263       .  A
C808        O813   1.270       .  A
C808       C2289   1.481       .  S
O809        C815   1.269       .  A
O809       Cd812   2.492       .  S
C810        O818   1.265       .  A
C810       C2309   1.486       .  S
C811        O816   1.265       .  A
C811        O814   1.265       .  A
C811       C5020   1.486       .  S
Cd812       O819   2.414       .  S
Cd812       O818   2.466       .  S
Cd812       O817   2.419       .  S
Cd812       O813   2.483       .  S
Cd812       O816   2.450       .  S
Cd812       O814   2.498       .  S
C815        O819   1.263       .  A
C815       C2400   1.473       .  S
O820        C823   1.267       .  A
O820       Cd825   2.453       .  S
C821        O830   1.262       .  A
C821        O826   1.267       .  A
C821       C2360   1.483       .  S
O822        C828   1.264       .  A
O822       Cd825   2.484       .  S
C823        O831   1.266       .  A
C823       C2320   1.485       .  S
C824        O829   1.264       .  A
C824        O827   1.262       .  A
C824       C4600   1.486       .  S
Cd825       O832   2.462       .  S
Cd825       O831   2.474       .  S
Cd825       O830   2.446       .  S
Cd825       O826   2.504       .  S
Cd825       O829   2.475       .  S
Cd825       O827   2.484       .  S
C828        O832   1.266       .  A
C828       C2269   1.491       .  S
O833        C836   1.266       .  A
O833       Cd838   2.468       .  S
C834        O843   1.263       .  A
C834        O839   1.270       .  A
C834       C2440   1.482       .  S
O835        C841   1.262       .  A
O835       Cd838   2.410       .  S
C836        O844   1.265       .  A
C836       C2249   1.493       .  S
C837        O842   1.266       .  A
C837        O840   1.265       .  A
C837       C3100   1.481       .  S
Cd838       O845   2.506       .  S
Cd838       O844   2.487       .  S
Cd838       O843   2.417       .  S
Cd838       O839   2.476       .  S
Cd838       O842   2.468       .  S
Cd838       O840   2.464       .  S
C841        O845   1.269       .  A
C841       C2300   1.480       .  S
O846        C849   1.266       .  A
O846       Cd851   2.473       .  S
C847        O856   1.264       .  A
C847        O852   1.268       .  A
C847       C2280   1.480       .  S
O848        C854   1.262       .  A
O848       Cd851   2.410       .  S
C849        O857   1.266       .  A
C849       C2260   1.492       .  S
C850        O855   1.265       .  A
C850        O853   1.267       .  A
C850       C4000   1.489       .  S
Cd851       O858   2.496       .  S
Cd851       O857   2.474       .  S
Cd851       O856   2.453       .  S
Cd851       O852   2.484       .  S
Cd851       O855   2.462       .  S
Cd851       O853   2.467       .  S
C854        O858   1.268       .  A
C854       C2340   1.477       .  S
O859        C862   1.265       .  A
O859       Cd864   2.451       .  S
C860        O869   1.267       .  A
C860        O865   1.265       .  A
C860       C2189   1.479       .  S
O861        C867   1.260       .  A
O861       Cd864   2.420       .  S
C862        O870   1.264       .  A
C862       C2209   1.486       .  S
C863        O868   1.265       .  A
C863        O866   1.263       .  A
C863       C4860   1.481       .  S
Cd864       O871   2.506       .  S
Cd864       O870   2.466       .  S
Cd864       O869   2.447       .  S
Cd864       O865   2.445       .  S
Cd864       O868   2.470       .  S
Cd864       O866   2.461       .  S
C867        O871   1.269       .  A
C867       C2240   1.482       .  S
O872        C875   1.262       .  A
O872       Cd877   2.446       .  S
C873        O882   1.265       .  A
C873        O878   1.268       .  A
C873       C2149   1.473       .  S
O874        C880   1.261       .  A
O874       Cd877   2.436       .  S
C875        O883   1.267       .  A
C875       C2220   1.488       .  S
C876        O881   1.263       .  A
C876        O879   1.265       .  A
C876       C2520   1.485       .  S
Cd877       O884   2.502       .  S
Cd877       O883   2.492       .  S
Cd877       O882   2.420       .  S
Cd877       O878   2.475       .  S
Cd877       O881   2.472       .  S
Cd877       O879   2.486       .  S
C880        O884   1.267       .  A
C880       C2169   1.482       .  S
O885        C888   1.268       .  A
O885       Cd890   2.481       .  S
C886        O895   1.266       .  A
C886        O891   1.269       .  A
C886       C2229   1.484       .  S
O887        C893   1.268       .  A
O887       Cd890   2.509       .  S
C888        O896   1.265       .  A
C888       C2109   1.490       .  S
C889        O894   1.267       .  A
C889        O892   1.264       .  A
C889       C2960   1.484       .  S
Cd890       O897   2.416       .  S
Cd890       O896   2.470       .  S
Cd890       O895   2.445       .  S
Cd890       O891   2.470       .  S
Cd890       O894   2.472       .  S
Cd890       O892   2.456       .  S
C893        O897   1.263       .  A
C893       C2129   1.478       .  S
O898        C901   1.271       .  A
O898       Cd903   2.519       .  S
C899        O908   1.265       .  A
C899        O904   1.269       .  A
C899       C2120   1.491       .  S
O900        C906   1.265       .  A
O900       Cd903   2.441       .  S
C901        O909   1.263       .  A
C901       C2089   1.488       .  S
C902        O907   1.267       .  A
C902        O905   1.264       .  A
C902       C2160   1.471       .  S
Cd903       O910   2.491       .  S
Cd903       O909   2.407       .  S
Cd903       O908   2.471       .  S
Cd903       O904   2.491       .  S
Cd903       O907   2.459       .  S
Cd903       O905   2.415       .  S
C906        O910   1.268       .  A
C906       C2069   1.490       .  S
O911        C914   1.266       .  A
O911       Cd916   2.483       .  S
C912        O921   1.264       .  A
C912        O917   1.269       .  A
C912       C2140   1.486       .  S
O913        C919   1.264       .  A
O913       Cd916   2.479       .  S
C914        O922   1.264       .  A
C914       C2060   1.490       .  S
C915        O920   1.262       .  A
C915        O918   1.267       .  A
C915       C2380   1.486       .  S
Cd916       O923   2.436       .  S
Cd916       O922   2.471       .  S
Cd916       O921   2.446       .  S
Cd916       O917   2.495       .  S
Cd916       O920   2.455       .  S
Cd916       O918   2.475       .  S
C919        O923   1.262       .  A
C919       C2200   1.471       .  S
O924        C927   1.268       .  A
O924       Cd929   2.498       .  S
C925        O934   1.267       .  A
C925        O930   1.265       .  A
C925       C2180   1.486       .  S
O926        C932   1.261       .  A
O926       Cd929   2.427       .  S
C927        O935   1.263       .  A
C927       C2049   1.493       .  S
C928        O933   1.267       .  A
C928        O931   1.264       .  A
C928       C2760   1.491       .  S
Cd929       O936   2.507       .  S
Cd929       O935   2.455       .  S
Cd929       O934   2.483       .  S
Cd929       O930   2.469       .  S
Cd929       O933   2.496       .  S
Cd929       O931   2.470       .  S
C932        O936   1.268       .  A
C932       C2100   1.479       .  S
O937        C940   1.267       .  A
O937       Cd942   2.456       .  S
C938        O947   1.263       .  A
C938        O943   1.271       .  A
C938       C2000   1.485       .  S
O939        C945   1.269       .  A
O939       Cd942   2.507       .  S
C940        O948   1.266       .  A
C940       C2009   1.487       .  S
C941        O946   1.267       .  A
C941        O944   1.266       .  A
C941       C3660   1.486       .  S
Cd942       O949   2.412       .  S
Cd942       O948   2.496       .  S
Cd942       O947   2.427       .  S
Cd942       O943   2.491       .  S
Cd942       O946   2.468       .  S
Cd942       O944   2.454       .  S
C945        O949   1.261       .  A
C945       C2040   1.478       .  S
O950        C953   1.265       .  A
O950       Cd955   2.465       .  S
C951        O960   1.265       .  A
C951        O956   1.270       .  A
C951       C1960   1.482       .  S
O952        C958   1.267       .  A
O952       Cd955   2.497       .  S
C953        O961   1.265       .  A
C953       C2020   1.487       .  S
C954        O959   1.266       .  A
C954        O957   1.263       .  A
C954       C4660   1.489       .  S
Cd955       O962   2.438       .  S
Cd955       O961   2.467       .  S
Cd955       O960   2.425       .  S
Cd955       O956   2.464       .  S
Cd955       O959   2.467       .  S
Cd955       O957   2.485       .  S
C958        O962   1.261       .  A
C958       C1969   1.474       .  S
O963        C966   1.264       .  A
O963       Cd968   2.460       .  S
C964        O973   1.266       .  A
C964        O969   1.266       .  A
C964       C1980   1.483       .  S
O965        C971   1.266       .  A
O965       Cd968   2.509       .  S
C966        O974   1.267       .  A
C966       C1909   1.489       .  S
C967        O972   1.262       .  A
C967        O970   1.266       .  A
C967       C1900   1.487       .  S
Cd968       O975   2.426       .  S
Cd968       O974   2.481       .  S
Cd968       O973   2.455       .  S
Cd968       O969   2.468       .  S
Cd968       O972   2.464       .  S
Cd968       O970   2.489       .  S
C971        O975   1.260       .  A
C971       C1929   1.481       .  S
O976        C979   1.264       .  A
O976       Cd981   2.453       .  S
C977        O986   1.265       .  A
C977        O982   1.269       .  A
C977       C1869   1.478       .  S
O978        C984   1.267       .  A
O978       Cd981   2.499       .  S
C979        O987   1.265       .  A
C979       C1920   1.490       .  S
C980        O985   1.264       .  A
C980        O983   1.265       .  A
C980       C2940   1.483       .  S
Cd981       O988   2.416       .  S
Cd981       O987   2.499       .  S
Cd981       O986   2.421       .  S
Cd981       O982   2.492       .  S
Cd981       O985   2.462       .  S
Cd981       O983   2.467       .  S
C984        O988   1.262       .  A
C984       C1989   1.482       .  S
O989        C992   1.266       .  A
O989       Cd994   2.463       .  S
C990        O999   1.266       .  A
C990        O995   1.267       .  A
C990       C1940   1.482       .  S
O991        C997   1.267       .  A
O991       Cd994   2.497       .  S
C992       O1000   1.263       .  A
C992       C1849   1.489       .  S
C993        O998   1.265       .  A
C993        O996   1.265       .  A
C993       C1829   1.480       .  S
Cd994      O1001   2.411       .  S
Cd994      O1000   2.469       .  S
Cd994       O999   2.447       .  S
Cd994       O995   2.470       .  S
Cd994       O998   2.444       .  S
Cd994       O996   2.463       .  S
C997       O1001   1.263       .  A
C997       C1949   1.477       .  S
O1002      C1005   1.266       .  A
O1002     Cd1007   2.473       .  S
C1003      O1012   1.263       .  A
C1003      O1008   1.267       .  A
C1003      C2029   1.483       .  S
O1004      C1010   1.269       .  A
O1004     Cd1007   2.498       .  S
C1005      O1013   1.266       .  A
C1005      C1860   1.487       .  S
C1006      O1011   1.266       .  A
C1006      O1009   1.265       .  A
C1006      C4409   1.487       .  S
Cd1007     O1014   2.410       .  S
Cd1007     O1013   2.453       .  S
Cd1007     O1012   2.434       .  S
Cd1007     O1008   2.490       .  S
Cd1007     O1011   2.456       .  S
Cd1007     O1009   2.468       .  S
C1010      O1014   1.263       .  A
C1010      C1880   1.475       .  S
O1015      C1018   1.266       .  A
O1015     Cd1020   2.468       .  S
C1016      O1025   1.263       .  A
C1016      O1021   1.269       .  A
C1016      C1769   1.473       .  S
O1017      C1023   1.267       .  A
O1017     Cd1020   2.497       .  S
C1018      O1026   1.268       .  A
C1018      C1789   1.490       .  S
C1019      O1024   1.265       .  A
C1019      O1022   1.266       .  A
C1019      C1889   1.485       .  S
Cd1020     O1027   2.432       .  S
Cd1020     O1026   2.453       .  S
Cd1020     O1025   2.408       .  S
Cd1020     O1021   2.465       .  S
Cd1020     O1024   2.456       .  S
Cd1020     O1022   2.489       .  S
C1023      O1027   1.263       .  A
C1023      C1809   1.478       .  S
O1028      C1031   1.269       .  A
O1028     Cd1033   2.486       .  S
C1029      O1038   1.261       .  A
C1029      O1034   1.270       .  A
C1029      C1800   1.491       .  S
O1030      C1036   1.265       .  A
O1030     Cd1033   2.469       .  S
C1031      O1039   1.266       .  A
C1031      C1740   1.489       .  S
C1032      O1037   1.264       .  A
C1032      O1035   1.267       .  A
C1032      C1760   1.478       .  S
Cd1033     O1040   2.472       .  S
Cd1033     O1039   2.436       .  S
Cd1033     O1038   2.436       .  S
Cd1033     O1034   2.498       .  S
Cd1033     O1037   2.427       .  S
Cd1033     O1035   2.478       .  S
C1036      O1040   1.267       .  A
C1036      C2080   1.484       .  S
O1041      C1044   1.265       .  A
O1041     Cd1046   2.487       .  S
C1042      O1051   1.262       .  A
C1042      O1047   1.269       .  A
C1042      C1700   1.482       .  S
O1043      C1049   1.269       .  A
O1043     Cd1046   2.507       .  S
C1044      O1052   1.267       .  A
C1044      C1709   1.495       .  S
C1045      O1050   1.266       .  A
C1045      O1048   1.265       .  A
C1045      C1669   1.490       .  S
Cd1046     O1053   2.390       .  S
Cd1046     O1052   2.479       .  S
Cd1046     O1051   2.413       .  S
Cd1046     O1047   2.482       .  S
Cd1046     O1050   2.483       .  S
Cd1046     O1048   2.481       .  S
C1049      O1053   1.263       .  A
C1049      C1780   1.479       .  S
O1054      C1057   1.268       .  A
O1054     Cd1059   2.483       .  S
C1055      O1064   1.265       .  A
C1055      O1060   1.266       .  A
C1055      C1720   1.495       .  S
O1056      C1062   1.263       .  A
O1056     Cd1059   2.457       .  S
C1057      O1065   1.265       .  A
C1057      C1749   1.477       .  S
C1058      O1063   1.263       .  A
C1058      O1061   1.267       .  A
C1058      C1649   1.486       .  S
Cd1059     O1066   2.514       .  S
Cd1059     O1065   2.438       .  S
Cd1059     O1064   2.497       .  S
Cd1059     O1060   2.472       .  S
Cd1059     O1063   2.464       .  S
Cd1059     O1061   2.497       .  S
C1062      O1066   1.266       .  A
C1062      C2700   1.489       .  S
O1067      C1070   1.267       .  A
O1067     Cd1072   2.471       .  S
C1068      O1077   1.266       .  A
C1068      O1073   1.268       .  A
C1068      C1820   1.475       .  S
O1069      C1075   1.266       .  A
O1069     Cd1072   2.482       .  S
C1070      O1078   1.263       .  A
C1070      C1640   1.485       .  S
C1071      O1076   1.265       .  A
C1071      O1074   1.264       .  A
C1071      C4520   1.488       .  S
Cd1072     O1079   2.415       .  S
Cd1072     O1078   2.448       .  S
Cd1072     O1077   2.438       .  S
Cd1072     O1073   2.460       .  S
Cd1072     O1076   2.452       .  S
Cd1072     O1074   2.477       .  S
C1075      O1079   1.263       .  A
C1075      C1689   1.483       .  S
O1080      C1083   1.263       .  A
O1080     Cd1085   2.483       .  S
C1081      O1090   1.265       .  A
C1081      O1086   1.268       .  A
C1081      C1660   1.485       .  S
O1082      C1088   1.267       .  A
O1082     Cd1085   2.486       .  S
C1083      O1091   1.265       .  A
C1083      C1629   1.491       .  S
C1084      O1089   1.264       .  A
C1084      O1087   1.266       .  A
C1084      C2580   1.490       .  S
Cd1085     O1092   2.425       .  S
Cd1085     O1091   2.479       .  S
Cd1085     O1090   2.432       .  S
Cd1085     O1086   2.476       .  S
Cd1085     O1089   2.457       .  S
Cd1085     O1087   2.495       .  S
C1088      O1092   1.261       .  A
C1088      C1729   1.479       .  S
O1093      C1096   1.265       .  A
O1093     Cd1098   2.475       .  S
C1094      O1103   1.265       .  A
C1094      O1099   1.269       .  A
C1094      C1569   1.480       .  S
O1095      C1101   1.262       .  A
O1095     Cd1098   2.419       .  S
C1096      O1104   1.267       .  A
C1096      C1589   1.494       .  S
C1097      O1102   1.266       .  A
C1097      O1100   1.266       .  A
C1097      C1680   1.491       .  S
Cd1098     O1105   2.506       .  S
Cd1098     O1104   2.487       .  S
Cd1098     O1103   2.447       .  S
Cd1098     O1099   2.474       .  S
Cd1098     O1102   2.492       .  S
Cd1098     O1100   2.479       .  S
C1101      O1105   1.269       .  A
C1101      C1609   1.477       .  S
O1106      C1109   1.267       .  A
O1106     Cd1111   2.469       .  S
C1107      O1116   1.266       .  A
C1107      O1112   1.267       .  A
C1107      C1540   1.484       .  S
O1108      C1114   1.262       .  A
O1108     Cd1111   2.398       .  S
C1109      O1117   1.264       .  A
C1109      C1600   1.492       .  S
C1110      O1115   1.266       .  A
C1110      O1113   1.265       .  A
C1110      C3400   1.486       .  S
Cd1111     O1118   2.514       .  S
Cd1111     O1117   2.471       .  S
Cd1111     O1116   2.455       .  S
Cd1111     O1112   2.479       .  S
Cd1111     O1115   2.481       .  S
Cd1111     O1113   2.463       .  S
C1114      O1118   1.269       .  A
C1114      C1549   1.474       .  S
O1119      C1122   1.265       .  A
O1119     Cd1124   2.459       .  S
C1120      O1129   1.264       .  A
C1120      O1125   1.268       .  A
C1120      C1489   1.479       .  S
O1121      C1127   1.268       .  A
O1121     Cd1124   2.506       .  S
C1122      O1130   1.267       .  A
C1122      C1520   1.488       .  S
C1123      O1128   1.265       .  A
C1123      O1126   1.266       .  A
C1123      C4960   1.486       .  S
Cd1124     O1131   2.438       .  S
Cd1124     O1130   2.461       .  S
Cd1124     O1129   2.440       .  S
Cd1124     O1125   2.477       .  S
Cd1124     O1128   2.449       .  S
Cd1124     O1126   2.466       .  S
C1127      O1131   1.263       .  A
C1127      C1529   1.482       .  S
O1132      C1135   1.269       .  A
O1132     Cd1137   2.494       .  S
C1133      O1142   1.263       .  A
C1133      O1138   1.271       .  A
C1133      C1620   1.486       .  S
O1134      C1140   1.269       .  A
O1134     Cd1137   2.507       .  S
C1135      O1143   1.263       .  A
C1135      C1509   1.494       .  S
C1136      O1141   1.266       .  A
C1136      O1139   1.266       .  A
C1136      C4560   1.488       .  S
Cd1137     O1144   2.413       .  S
Cd1137     O1143   2.463       .  S
Cd1137     O1142   2.415       .  S
Cd1137     O1138   2.507       .  S
Cd1137     O1141   2.474       .  S
Cd1137     O1139   2.480       .  S
C1140      O1144   1.264       .  A
C1140      C1469   1.483       .  S
O1145      C1148   1.267       .  A
O1145     Cd1150   2.452       .  S
C1146      O1155   1.263       .  A
C1146      O1151   1.271       .  A
C1146      C1480   1.486       .  S
O1147      C1153   1.260       .  A
O1147     Cd1150   2.426       .  S
C1148      O1156   1.263       .  A
C1148      C1449   1.486       .  S
C1149      O1154   1.265       .  A
C1149      O1152   1.264       .  A
C1149      C1840   1.477       .  S
Cd1150     O1157   2.508       .  S
Cd1150     O1156   2.459       .  S
Cd1150     O1155   2.409       .  S
Cd1150     O1151   2.485       .  S
Cd1150     O1154   2.465       .  S
Cd1150     O1152   2.442       .  S
C1153      O1157   1.265       .  A
C1153      C1580   1.485       .  S
O1158      C1161   1.264       .  A
O1158     Cd1163   2.448       .  S
C1159      O1168   1.268       .  A
C1159      O1164   1.265       .  A
C1159      C1560   1.477       .  S
O1160      C1166   1.269       .  A
O1160     Cd1163   2.504       .  S
C1161      O1169   1.266       .  A
C1161      C1460   1.487       .  S
C1162      O1167   1.264       .  A
C1162      O1165   1.264       .  A
C1162      C1429   1.485       .  S
Cd1163     O1170   2.425       .  S
Cd1163     O1169   2.476       .  S
Cd1163     O1168   2.480       .  S
Cd1163     O1164   2.424       .  S
Cd1163     O1167   2.458       .  S
Cd1163     O1165   2.465       .  S
C1166      O1170   1.264       .  A
C1166      C1500   1.482       .  S
O1171      C1174   1.266       .  A
O1171     Cd1176   2.469       .  S
C1172      O1181   1.264       .  A
C1172      O1177   1.269       .  A
C1172      C1380   1.485       .  S
O1173      C1179   1.262       .  A
O1173     Cd1176   2.397       .  S
C1174      O1182   1.264       .  A
C1174      C1389   1.480       .  S
C1175      O1180   1.267       .  A
C1175      O1178   1.264       .  A
C1175      C4900   1.484       .  S
Cd1176     O1183   2.498       .  S
Cd1176     O1182   2.451       .  S
Cd1176     O1181   2.454       .  S
Cd1176     O1177   2.465       .  S
Cd1176     O1180   2.459       .  S
Cd1176     O1178   2.458       .  S
C1179      O1183   1.269       .  A
C1179      C1409   1.472       .  S
O1184      C1187   1.264       .  A
O1184     Cd1189   2.453       .  S
C1185      O1194   1.265       .  A
C1185      O1190   1.267       .  A
C1185      C1329   1.484       .  S
O1186      C1192   1.268       .  A
O1186     Cd1189   2.503       .  S
C1187      O1195   1.265       .  A
C1187      C1400   1.487       .  S
C1188      O1193   1.265       .  A
C1188      O1191   1.264       .  A
C1188      C2480   1.489       .  S
Cd1189     O1196   2.420       .  S
Cd1189     O1195   2.474       .  S
Cd1189     O1194   2.459       .  S
Cd1189     O1190   2.480       .  S
Cd1189     O1193   2.465       .  S
Cd1189     O1191   2.473       .  S
C1192      O1196   1.261       .  A
C1192      C1349   1.481       .  S
O1197      C1200   1.263       .  A
O1197     Cd1202   2.440       .  S
C1198      O1207   1.266       .  A
C1198      O1203   1.267       .  A
C1198      C1360   1.485       .  S
O1199      C1205   1.265       .  A
O1199     Cd1202   2.500       .  S
C1200      O1208   1.266       .  A
C1200      C1289   1.476       .  S
C1201      O1206   1.265       .  A
C1201      O1204   1.264       .  A
C1201      C3960   1.489       .  S
Cd1202     O1209   2.455       .  S
Cd1202     O1208   2.493       .  S
Cd1202     O1207   2.439       .  S
Cd1202     O1203   2.475       .  S
Cd1202     O1206   2.468       .  S
Cd1202     O1204   2.477       .  S
C1205      O1209   1.263       .  A
C1205      C1320   1.489       .  S
O1210      C1213   1.267       .  A
O1210     Cd1215   2.493       .  S
C1211      O1220   1.266       .  A
C1211      O1216   1.269       .  A
C1211      C1280   1.484       .  S
O1212      C1218   1.267       .  A
O1212     Cd1215   2.507       .  S
C1213      O1221   1.264       .  A
C1213      C1300   1.487       .  S
C1214      O1219   1.265       .  A
C1214      O1217   1.267       .  A
C1214      C3520   1.488       .  S
Cd1215     O1222   2.424       .  S
Cd1215     O1221   2.462       .  S
Cd1215     O1220   2.426       .  S
Cd1215     O1216   2.483       .  S
Cd1215     O1219   2.467       .  S
Cd1215     O1217   2.491       .  S
C1218      O1222   1.263       .  A
C1218      C1369   1.484       .  S
O1223      C1226   1.267       .  A
O1223     Cd1228   2.477       .  S
C1224      O1233   1.266       .  A
C1224      O1229   1.269       .  A
C1224      C1309   1.481       .  S
O1225      C1231   1.263       .  A
O1225     Cd1228   2.438       .  S
C1226      O1234   1.264       .  A
C1226      C1249   1.490       .  S
C1227      O1232   1.267       .  A
C1227      O1230   1.266       .  A
C1227      C4349   1.490       .  S
Cd1228     O1235   2.520       .  S
Cd1228     O1234   2.461       .  S
Cd1228     O1233   2.445       .  S
Cd1228     O1229   2.469       .  S
Cd1228     O1232   2.484       .  S
Cd1228     O1230   2.480       .  S
C1231      O1235   1.267       .  A
C1231      C1340   1.492       .  S
O1236      C1239   1.266       .  A
O1236     Cd1241   2.477       .  S
C1237      O1246   1.267       .  A
C1237      O1242   1.269       .  A
C1237      C1420   1.488       .  S
O1238      C1244   1.267       .  A
O1238     Cd1241   2.495       .  S
C1239      O1247   1.265       .  A
C1239      C1260   1.487       .  S
C1240      O1245   1.267       .  A
C1240      O1243   1.264       .  A
C1240      C1440   1.487       .  S
Cd1241     O1248   2.409       .  S
Cd1241     O1247   2.449       .  S
Cd1241     O1246   2.442       .  S
Cd1241     O1242   2.475       .  S
Cd1241     O1245   2.468       .  S
Cd1241     O1243   2.447       .  S
C1244      O1248   1.262       .  A
C1244      C1269   1.472       .  S
C1249      C1250   1.418       .  A
C1249      C1254   1.409       .  A
C1250      C1251   1.402       .  A
C1250     Br1266   1.921       .  S
C1251      C1252   1.400       .  A
C1251      H1255   1.084       .  S
C1252      C1256   1.478       .  S
C1252      C1253   1.405       .  A
C1253      C1254   1.399       .  A
C1253     Br1265   1.919       .  S
C1254      H1257   1.083       .  S
C1256      C1258   1.402       .  A
C1256      C1262   1.404       .  A
C1258      C1259   1.401       .  A
C1258      H1263   1.084       .  S
C1259      C1260   1.415       .  A
C1259     Br1267   1.920       .  S
C1260      C1261   1.410       .  A
C1261      C1262   1.399       .  A
C1261      H1264   1.083       .  S
C1262     Br1268   1.918       .  S
C1269      C1270   1.409       .  A
C1269      C1274   1.405       .  A
C1270      C1271   1.394       .  A
C1270     Br1286   1.922       .  S
C1271      C1272   1.403       .  A
C1271      H1275   1.084       .  S
C1272      C1276   1.481       .  S
C1272      C1273   1.410       .  A
C1273      C1274   1.402       .  A
C1273     Br1285   1.919       .  S
C1274      H1277   1.084       .  S
C1276      C1278   1.403       .  A
C1276      C1282   1.406       .  A
C1278      C1279   1.401       .  A
C1278      H1283   1.084       .  S
C1279      C1280   1.415       .  A
C1279     Br1287   1.920       .  S
C1280      C1281   1.408       .  A
C1281      C1282   1.397       .  A
C1281      H1284   1.083       .  S
C1282     Br1288   1.920       .  S
C1289      C1290   1.411       .  A
C1289      C1294   1.405       .  A
C1290      C1291   1.395       .  A
C1290     Br1306   1.923       .  S
C1291      C1292   1.401       .  A
C1291      H1295   1.084       .  S
C1292      C1296   1.484       .  S
C1292      C1293   1.411       .  A
C1293      C1294   1.405       .  A
C1293     Br1305   1.917       .  S
C1294      H1297   1.083       .  S
C1296      C1298   1.399       .  A
C1296      C1302   1.410       .  A
C1298      C1299   1.400       .  A
C1298      H1303   1.084       .  S
C1299      C1300   1.418       .  A
C1299     Br1307   1.918       .  S
C1300      C1301   1.406       .  A
C1301      C1302   1.402       .  A
C1301      H1304   1.083       .  S
C1302     Br1308   1.919       .  S
C1309      C1310   1.415       .  A
C1309      C1314   1.404       .  A
C1310      C1311   1.401       .  A
C1310     Br1326   1.920       .  S
C1311      C1312   1.402       .  A
C1311      H1315   1.084       .  S
C1312      C1316   1.479       .  S
C1312      C1313   1.408       .  A
C1313      C1314   1.398       .  A
C1313     Br1325   1.919       .  S
C1314      H1317   1.083       .  S
C1316      C1318   1.402       .  A
C1316      C1322   1.406       .  A
C1318      C1319   1.404       .  A
C1318      H1323   1.083       .  S
C1319      C1320   1.418       .  A
C1319     Br1327   1.920       .  S
C1320      C1321   1.407       .  A
C1321      C1322   1.396       .  A
C1321      H1324   1.083       .  S
C1322     Br1328   1.921       .  S
C1329      C1330   1.414       .  A
C1329      C1334   1.406       .  A
C1330      C1331   1.402       .  A
C1330     Br1346   1.920       .  S
C1331      C1332   1.401       .  A
C1331      H1335   1.083       .  S
C1332      C1336   1.481       .  S
C1332      C1333   1.408       .  A
C1333      C1334   1.399       .  A
C1333     Br1345   1.919       .  S
C1334      H1337   1.083       .  S
C1336      C1338   1.402       .  A
C1336      C1342   1.406       .  A
C1338      C1339   1.406       .  A
C1338      H1343   1.083       .  S
C1339      C1340   1.418       .  A
C1339     Br1347   1.919       .  S
C1340      C1341   1.408       .  A
C1341      C1342   1.395       .  A
C1341      H1344   1.083       .  S
C1342     Br1348   1.921       .  S
C1349      C1350   1.415       .  A
C1349      C1354   1.409       .  A
C1350      C1351   1.394       .  A
C1350     Br1366   1.923       .  S
C1351      C1352   1.399       .  A
C1351      H1355   1.084       .  S
C1352      C1356   1.475       .  S
C1352      C1353   1.405       .  A
C1353      C1354   1.403       .  A
C1353     Br1365   1.917       .  S
C1354      H1357   1.083       .  S
C1356      C1358   1.401       .  A
C1356      C1362   1.403       .  A
C1358      C1359   1.401       .  A
C1358      H1363   1.084       .  S
C1359      C1360   1.417       .  A
C1359     Br1367   1.921       .  S
C1360      C1361   1.408       .  A
C1361      C1362   1.396       .  A
C1361      H1364   1.083       .  S
C1362     Br1368   1.918       .  S
C1369      C1370   1.416       .  A
C1369      C1374   1.407       .  A
C1370      C1371   1.403       .  A
C1370     Br1386   1.918       .  S
C1371      C1372   1.401       .  A
C1371      H1375   1.083       .  S
C1372      C1376   1.475       .  S
C1372      C1373   1.404       .  A
C1373      C1374   1.394       .  A
C1373     Br1385   1.920       .  S
C1374      H1377   1.083       .  S
C1376      C1378   1.400       .  A
C1376      C1382   1.405       .  A
C1378      C1379   1.400       .  A
C1378      H1383   1.084       .  S
C1379      C1380   1.417       .  A
C1379     Br1387   1.921       .  S
C1380      C1381   1.407       .  A
C1381      C1382   1.397       .  A
C1381      H1384   1.083       .  S
C1382     Br1388   1.919       .  S
C1389      C1390   1.414       .  A
C1389      C1394   1.405       .  A
C1390      C1391   1.401       .  A
C1390     Br1406   1.919       .  S
C1391      C1392   1.400       .  A
C1391      H1395   1.083       .  S
C1392      C1396   1.476       .  S
C1392      C1393   1.407       .  A
C1393      C1394   1.397       .  A
C1393     Br1405   1.920       .  S
C1394      H1397   1.083       .  S
C1396      C1398   1.399       .  A
C1396      C1402   1.404       .  A
C1398      C1399   1.398       .  A
C1398      H1403   1.084       .  S
C1399      C1400   1.418       .  A
C1399     Br1407   1.922       .  S
C1400      C1401   1.410       .  A
C1401      C1402   1.401       .  A
C1401      H1404   1.083       .  S
C1402     Br1408   1.918       .  S
C1409      C1410   1.410       .  A
C1409      C1414   1.406       .  A
C1410      C1411   1.391       .  A
C1410     Br1426   1.924       .  S
C1411      C1412   1.401       .  A
C1411      H1415   1.084       .  S
C1412      C1416   1.480       .  S
C1412      C1413   1.410       .  A
C1413      C1414   1.404       .  A
C1413     Br1425   1.917       .  S
C1414      H1417   1.083       .  S
C1416      C1418   1.403       .  A
C1416      C1422   1.407       .  A
C1418      C1419   1.402       .  A
C1418      H1423   1.083       .  S
C1419      C1420   1.416       .  A
C1419     Br1427   1.920       .  S
C1420      C1421   1.408       .  A
C1421      C1422   1.396       .  A
C1421      H1424   1.083       .  S
C1422     Br1428   1.922       .  S
C1429      C1430   1.416   1_554  A
C1429      C1434   1.411       .  A
C1430      C1431   1.397       .  A
C1430     Br1446   1.921       .  S
C1431      C1432   1.399       .  A
C1431      H1435   1.084       .  S
C1432      C1436   1.473       .  S
C1432      C1433   1.403   1_556  A
C1433      C1434   1.399       .  A
C1433     Br1445   1.918       .  S
C1434      H1437   1.083       .  S
C1436      C1438   1.398       .  A
C1436      C1442   1.405       .  A
C1438      C1439   1.400       .  A
C1438      H1443   1.084       .  S
C1439      C1440   1.419       .  A
C1439     Br1447   1.921       .  S
C1440      C1441   1.408       .  A
C1441      C1442   1.397       .  A
C1441      H1444   1.083       .  S
C1442     Br1448   1.920   1_556  S
C1449      C1450   1.419       .  A
C1449      C1454   1.406       .  A
C1450      C1451   1.402       .  A
C1450     Br1466   1.921       .  S
C1451      C1452   1.400       .  A
C1451      H1455   1.083       .  S
C1452      C1456   1.475       .  S
C1452      C1453   1.405       .  A
C1453      C1454   1.394       .  A
C1453     Br1465   1.920       .  S
C1454      H1457   1.083       .  S
C1456      C1458   1.399       .  A
C1456      C1462   1.403       .  A
C1458      C1459   1.397       .  A
C1458      H1463   1.084       .  S
C1459      C1460   1.418       .  A
C1459     Br1467   1.922       .  S
C1460      C1461   1.411       .  A
C1461      C1462   1.401       .  A
C1461      H1464   1.083       .  S
C1462     Br1468   1.918       .  S
C1469      C1470   1.416       .  A
C1469      C1474   1.406       .  A
C1470      C1471   1.404       .  A
C1470     Br1486   1.919       .  S
C1471      C1472   1.402       .  A
C1471      H1475   1.083       .  S
C1472      C1476   1.473       .  S
C1472      C1473   1.404       .  A
C1473      C1474   1.392       .  A
C1473     Br1485   1.921       .  S
C1474      H1477   1.084       .  S
C1476      C1478   1.396       .  A
C1476      C1482   1.406       .  A
C1478      C1479   1.397       .  A
C1478      H1483   1.084       .  S
C1479      C1480   1.420       .  A
C1479     Br1487   1.923       .  S
C1480      C1481   1.408       .  A
C1481      C1482   1.399       .  A
C1481      H1484   1.083       .  S
C1482     Br1488   1.919       .  S
C1489      C1490   1.414       .  A
C1489      C1494   1.404       .  A
C1490      C1491   1.400       .  A
C1490     Br1506   1.921       .  S
C1491      C1492   1.401       .  A
C1491      H1495   1.083       .  S
C1492      C1496   1.475       .  S
C1492      C1493   1.407       .  A
C1493      C1494   1.397       .  A
C1493     Br1505   1.919       .  S
C1494      H1497   1.083       .  S
C1496      C1498   1.402       .  A
C1496      C1502   1.406       .  A
C1498      C1499   1.403       .  A
C1498      H1503   1.083       .  S
C1499      C1500   1.414       .  A
C1499     Br1507   1.918   1_554  S
C1500      C1501   1.406       .  A
C1501      C1502   1.395       .  A
C1501      H1504   1.084       .  S
C1502     Br1508   1.922       .  S
C1509      C1510   1.421       .  A
C1509      C1514   1.407       .  A
C1510      C1511   1.403       .  A
C1510     Br1526   1.921       .  S
C1511      C1512   1.400       .  A
C1511      H1515   1.084       .  S
C1512      C1516   1.483       .  S
C1512      C1513   1.409       .  A
C1513      C1514   1.400       .  A
C1513     Br1525   1.922       .  S
C1514      H1517   1.083       .  S
C1516      C1518   1.402       .  A
C1516      C1522   1.406       .  A
C1518      C1519   1.401       .  A
C1518      H1523   1.084       .  S
C1519      C1520   1.417       .  A
C1519     Br1527   1.922       .  S
C1520      C1521   1.408       .  A
C1521      C1522   1.399       .  A
C1521      H1524   1.083       .  S
C1522     Br1528   1.918       .  S
C1529      C1530   1.414       .  A
C1529      C1534   1.406       .  A
C1530      C1531   1.398       .  A
C1530     Br1546   1.922       .  S
C1531      C1532   1.401       .  A
C1531      H1535   1.084       .  S
C1532      C1536   1.481       .  S
C1532      C1533   1.409       .  A
C1533      C1534   1.403       .  A
C1533     Br1545   1.918       .  S
C1534      H1537   1.083       .  S
C1536      C1538   1.404       .  A
C1536      C1542   1.408       .  A
C1538      C1539   1.404       .  A
C1538      H1543   1.083       .  S
C1539      C1540   1.414       .  A
C1539     Br1547   1.920       .  S
C1540      C1541   1.405       .  A
C1541      C1542   1.397       .  A
C1541      H1544   1.083       .  S
C1542     Br1548   1.920       .  S
C1549      C1550   1.411       .  A
C1549      C1554   1.404       .  A
C1550      C1551   1.395       .  A
C1550     Br1566   1.923       .  S
C1551      C1552   1.399       .  A
C1551      H1555   1.084       .  S
C1552      C1556   1.477       .  S
C1552      C1553   1.409       .  A
C1553      C1554   1.403       .  A
C1553     Br1565   1.918       .  S
C1554      H1557   1.083       .  S
C1556      C1558   1.403       .  A
C1556      C1562   1.408       .  A
C1558      C1559   1.403       .  A
C1558      H1563   1.083       .  S
C1559      C1560   1.411       .  A
C1559     Br1567   1.919       .  S
C1560      C1561   1.404       .  A
C1561      C1562   1.394       .  A
C1561      H1564   1.084       .  S
C1562     Br1568   1.921       .  S
C1569      C1570   1.414       .  A
C1569      C1574   1.405       .  A
C1570      C1571   1.400       .  A
C1570     Br1586   1.920       .  S
C1571      C1572   1.401       .  A
C1571      H1575   1.084       .  S
C1572      C1576   1.476       .  S
C1572      C1573   1.407       .  A
C1573      C1574   1.398       .  A
C1573     Br1585   1.919       .  S
C1574      H1577   1.083       .  S
C1576      C1578   1.402       .  A
C1576      C1582   1.404       .  A
C1578      C1579   1.403       .  A
C1578      H1583   1.083       .  S
C1579      C1580   1.417       .  A
C1579     Br1587   1.920       .  S
C1580      C1581   1.408       .  A
C1581      C1582   1.394       .  A
C1581      H1584   1.083       .  S
C1582     Br1588   1.920       .  S
C1589      C1590   1.418       .  A
C1589      C1594   1.410       .  A
C1590      C1591   1.402       .  A
C1590     Br1606   1.921       .  S
C1591      C1592   1.401       .  A
C1591      H1595   1.084       .  S
C1592      C1596   1.484       .  S
C1592      C1593   1.406       .  A
C1593      C1594   1.402       .  A
C1593     Br1605   1.919       .  S
C1594      H1597   1.083       .  S
C1596      C1598   1.402       .  A
C1596      C1602   1.408       .  A
C1598      C1599   1.403       .  A
C1598      H1603   1.084       .  S
C1599      C1600   1.419       .  A
C1599     Br1607   1.921       .  S
C1600      C1601   1.408       .  A
C1601      C1602   1.399       .  A
C1601      H1604   1.083       .  S
C1602     Br1608   1.920       .  S
C1609      C1610   1.412       .  A
C1609      C1614   1.403       .  A
C1610      C1611   1.404       .  A
C1610     Br1626   1.918       .  S
C1611      C1612   1.403       .  A
C1611      H1615   1.083       .  S
C1612      C1616   1.477       .  S
C1612      C1613   1.407       .  A
C1613      C1614   1.394       .  A
C1613     Br1625   1.921       .  S
C1614      H1617   1.084       .  S
C1616      C1618   1.399       .  A
C1616      C1622   1.407       .  A
C1618      C1619   1.397       .  A
C1618      H1623   1.084       .  S
C1619      C1620   1.418       .  A
C1619     Br1627   1.922       .  S
C1620      C1621   1.407       .  A
C1621      C1622   1.402       .  A
C1621      H1624   1.083       .  S
C1622     Br1628   1.919       .  S
C1629      C1630   1.419       .  A
C1629      C1634   1.409       .  A
C1630      C1631   1.401       .  A
C1630     Br1646   1.922       .  S
C1631      C1632   1.401       .  A
C1631      H1635   1.084       .  S
C1632      C1636   1.481       .  S
C1632      C1633   1.405       .  A
C1633      C1634   1.400       .  A
C1633     Br1645   1.918       .  S
C1634      H1637   1.083       .  S
C1636      C1638   1.401       .  A
C1636      C1642   1.407       .  A
C1638      C1639   1.401       .  A
C1638      H1643   1.084       .  S
C1639      C1640   1.417       .  A
C1639     Br1647   1.921       .  S
C1640      C1641   1.407       .  A
C1641      C1642   1.398       .  A
C1641      H1644   1.083       .  S
C1642     Br1648   1.919       .  S
C1649      C1650   1.415       .  A
C1649      C1654   1.408       .  A
C1650      C1651   1.399       .  A
C1650     Br1666   1.921       .  S
C1651      C1652   1.402       .  A
C1651      H1655   1.084       .  S
C1652      C1656   1.482       .  S
C1652      C1653   1.407       .  A
C1653      C1654   1.402       .  A
C1653     Br1665   1.918       .  S
C1654      H1657   1.083       .  S
C1656      C1658   1.402       .  A
C1656      C1662   1.406       .  A
C1658      C1659   1.400       .  A
C1658      H1663   1.084       .  S
C1659      C1660   1.415       .  A
C1659     Br1667   1.921       .  S
C1660      C1661   1.408       .  A
C1661      C1662   1.398       .  A
C1661      H1664   1.083       .  S
C1662     Br1668   1.918       .  S
C1669      C1670   1.416       .  A
C1669      C1674   1.407       .  A
C1670      C1671   1.405       .  A
C1670     Br1686   1.920       .  S
C1671      C1672   1.402       .  A
C1671      H1675   1.083       .  S
C1672      C1676   1.484       .  S
C1672      C1673   1.407       .  A
C1673      C1674   1.400       .  A
C1673     Br1685   1.919       .  S
C1674      H1677   1.083       .  S
C1676      C1678   1.402       .  A
C1676      C1682   1.406       .  A
C1678      C1679   1.404       .  A
C1678      H1683   1.084       .  S
C1679      C1680   1.416       .  A
C1679     Br1687   1.919       .  S
C1680      C1681   1.408       .  A
C1681      C1682   1.401       .  A
C1681      H1684   1.083       .  S
C1682     Br1688   1.918       .  S
C1689      C1690   1.418       .  A
C1689      C1694   1.408       .  A
C1690      C1691   1.402       .  A
C1690     Br1706   1.920       .  S
C1691      C1692   1.400       .  A
C1691      H1695   1.083       .  S
C1692      C1696   1.469       .  S
C1692      C1693   1.402       .  A
C1693      C1694   1.391       .  A
C1693     Br1705   1.922       .  S
C1694      H1697   1.083       .  S
C1696      C1698   1.397       .  A
C1696      C1702   1.404       .  A
C1698      C1699   1.395       .  A
C1698      H1703   1.084       .  S
C1699      C1700   1.419       .  A
C1699     Br1707   1.923       .  S
C1700      C1701   1.407       .  A
C1701      C1702   1.398       .  A
C1701      H1704   1.083       .  S
C1702     Br1708   1.919       .  S
C1709      C1710   1.419       .  A
C1709      C1714   1.409       .  A
C1710      C1711   1.404       .  A
C1710     Br1726   1.921       .  S
C1711      C1712   1.402       .  A
C1711      H1715   1.084       .  S
C1712      C1716   1.484       .  S
C1712      C1713   1.405       .  A
C1713      C1714   1.400       .  A
C1713     Br1725   1.917       .  S
C1714      H1717   1.083       .  S
C1716      C1718   1.402       .  A
C1716      C1722   1.406       .  A
C1718      C1719   1.406       .  A
C1718      H1723   1.083       .  S
C1719      C1720   1.419       .  A
C1719     Br1727   1.920       .  S
C1720      C1721   1.408       .  A
C1721      C1722   1.398       .  A
C1721      H1724   1.083       .  S
C1722     Br1728   1.920       .  S
C1729      C1730   1.414       .  A
C1729      C1734   1.407       .  A
C1730      C1731   1.395       .  A
C1730     Br1746   1.924       .  S
C1731      C1732   1.402       .  A
C1731      H1735   1.084       .  S
C1732      C1736   1.480       .  S
C1732      C1733   1.407       .  A
C1733      C1734   1.401       .  A
C1733     Br1745   1.916       .  S
C1734      H1737   1.083       .  S
C1736      C1738   1.402       .  A
C1736      C1742   1.405       .  A
C1738      C1739   1.401       .  A
C1738      H1743   1.084       .  S
C1739      C1740   1.417       .  A
C1739     Br1747   1.920       .  S
C1740      C1741   1.409       .  A
C1741      C1742   1.397       .  A
C1741      H1744   1.083       .  S
C1742     Br1748   1.920       .  S
C1749      C1750   1.412       .  A
C1749      C1754   1.405       .  A
C1750      C1751   1.398       .  A
C1750     Br1766   1.920       .  S
C1751      C1752   1.400       .  A
C1751      H1755   1.084       .  S
C1752      C1756   1.472       .  S
C1752      C1753   1.406       .  A
C1753      C1754   1.399       .  A
C1753     Br1765   1.918       .  S
C1754      H1757   1.083       .  S
C1756      C1758   1.400       .  A
C1756      C1762   1.406       .  A
C1758      C1759   1.403       .  A
C1758      H1763   1.083       .  S
C1759      C1760   1.416       .  A
C1759     Br1767   1.920       .  S
C1760      C1761   1.404       .  A
C1761      C1762   1.393       .  A
C1761      H1764   1.084       .  S
C1762     Br1768   1.921       .  S
C1769      C1770   1.415       .  A
C1769      C1774   1.403       .  A
C1770      C1771   1.397       .  A
C1770     Br1786   1.922       .  S
C1771      C1772   1.398       .  A
C1771      H1775   1.084       .  S
C1772      C1776   1.468       .  S
C1772      C1773   1.407       .  A
C1773      C1774   1.395       .  A
C1773     Br1785   1.919       .  S
C1774      H1777   1.083       .  S
C1776      C1778   1.401       .  A
C1776      C1782   1.403       .  A
C1778      C1779   1.403       .  A
C1778      H1783   1.083       .  S
C1779      C1780   1.414       .  A
C1779     Br1787   1.918       .  S
C1780      C1781   1.406       .  A
C1781      C1782   1.389       .  A
C1781      H1784   1.084       .  S
C1782     Br1788   1.922       .  S
C1789      C1790   1.419       .  A
C1789      C1794   1.410       .  A
C1790      C1791   1.401       .  A
C1790     Br1806   1.922       .  S
C1791      C1792   1.401       .  A
C1791      H1795   1.084       .  S
C1792      C1796   1.479       .  S
C1792      C1793   1.404       .  A
C1793      C1794   1.399       .  A
C1793     Br1805   1.917       .  S
C1794      H1797   1.083       .  S
C1796      C1798   1.399       .  A
C1796      C1802   1.406       .  A
C1798      C1799   1.402       .  A
C1798      H1803   1.084       .  S
C1799      C1800   1.421       .  A
C1799     Br1807   1.922       .  S
C1800      C1801   1.407       .  A
C1801      C1802   1.400       .  A
C1801      H1804   1.083       .  S
C1802     Br1808   1.919       .  S
C1809      C1810   1.414       .  A
C1809      C1814   1.404       .  A
C1810      C1811   1.403       .  A
C1810     Br1826   1.920       .  S
C1811      C1812   1.402       .  A
C1811      H1815   1.083       .  S
C1812      C1816   1.475       .  S
C1812      C1813   1.406       .  A
C1813      C1814   1.394       .  A
C1813     Br1825   1.921       .  S
C1814      H1817   1.084       .  S
C1816      C1818   1.402       .  A
C1816      C1822   1.407       .  A
C1818      C1819   1.400       .  A
C1818      H1823   1.084       .  S
C1819      C1820   1.412       .  A
C1819     Br1827   1.920       .  S
C1820      C1821   1.404       .  A
C1821      C1822   1.397       .  A
C1821      H1824   1.084       .  S
C1822     Br1828   1.919       .  S
C1829      C1830   1.415       .  A
C1829      C1834   1.406       .  A
C1830      C1831   1.400       .  A
C1830     Br1846   1.920       .  S
C1831      C1832   1.400       .  A
C1831      H1835   1.084       .  S
C1832      C1836   1.471       .  S
C1832      C1833   1.405       .  A
C1833      C1834   1.394       .  A
C1833     Br1845   1.921       .  S
C1834      H1837   1.083       .  S
C1836      C1838   1.401       .  A
C1836      C1842   1.404       .  A
C1838      C1839   1.399       .  A
C1838      H1843   1.084       .  S
C1839      C1840   1.412       .  A
C1839     Br1847   1.920       .  S
C1840      C1841   1.407       .  A
C1841      C1842   1.395       .  A
C1841      H1844   1.083       .  S
C1842     Br1848   1.919       .  S
C1849      C1850   1.419       .  A
C1849      C1854   1.407       .  A
C1850      C1851   1.402       .  A
C1850     Br1866   1.921       .  S
C1851      C1852   1.401       .  A
C1851      H1855   1.084       .  S
C1852      C1856   1.481       .  S
C1852      C1853   1.408       .  A
C1853      C1854   1.397       .  A
C1853     Br1865   1.921       .  S
C1854      H1857   1.083       .  S
C1856      C1858   1.403       .  A
C1856      C1862   1.405       .  A
C1858      C1859   1.401       .  A
C1858      H1863   1.084       .  S
C1859      C1860   1.416       .  A
C1859     Br1867   1.921       .  S
C1860      C1861   1.408       .  A
C1861      C1862   1.398       .  A
C1861      H1864   1.083       .  S
C1862     Br1868   1.919       .  S
C1869      C1870   1.411       .  A
C1869      C1874   1.404       .  A
C1870      C1871   1.403       .  A
C1870     Br1886   1.918       .  S
C1871      C1872   1.406       .  A
C1871      H1875   1.083       .  S
C1872      C1876   1.482       .  S
C1872      C1873   1.410       .  A
C1873      C1874   1.394       .  A
C1873     Br1885   1.922       .  S
C1874      H1877   1.084       .  S
C1876      C1878   1.402       .  A
C1876      C1882   1.411       .  A
C1878      C1879   1.396       .  A
C1878      H1883   1.084       .  S
C1879      C1880   1.411       .  A
C1879     Br1887   1.922       .  S
C1880      C1881   1.404       .  A
C1881      C1882   1.402       .  A
C1881      H1884   1.083       .  S
C1882     Br1888   1.919       .  S
C1889      C1890   1.414       .  A
C1889      C1894   1.406       .  A
C1890      C1891   1.404       .  A
C1890     Br1906   1.919       .  S
C1891      C1892   1.404       .  A
C1891      H1895   1.083       .  S
C1892      C1896   1.483       .  S
C1892      C1893   1.407       .  A
C1893      C1894   1.397       .  A
C1893     Br1905   1.921       .  S
C1894      H1897   1.083       .  S
C1896      C1898   1.402       .  A
C1896      C1902   1.407       .  A
C1898      C1899   1.400       .  A
C1898      H1903   1.084       .  S
C1899      C1900   1.416       .  A
C1899     Br1907   1.921       .  S
C1900      C1901   1.408       .  A
C1901      C1902   1.400       .  A
C1901      H1904   1.083       .  S
C1902     Br1908   1.919       .  S
C1909      C1910   1.417       .  A
C1909      C1914   1.408       .  A
C1910      C1911   1.401       .  A
C1910     Br1926   1.922       .  S
C1911      C1912   1.402       .  A
C1911      H1915   1.084       .  S
C1912      C1916   1.483       .  S
C1912      C1913   1.407       .  A
C1913      C1914   1.400       .  A
C1913     Br1925   1.919       .  S
C1914      H1917   1.083       .  S
C1916      C1918   1.402       .  A
C1916      C1922   1.407       .  A
C1918      C1919   1.404       .  A
C1918      H1923   1.083       .  S
C1919      C1920   1.417       .  A
C1919     Br1927   1.919       .  S
C1920      C1921   1.408       .  A
C1921      C1922   1.397       .  A
C1921      H1924   1.083       .  S
C1922     Br1928   1.920       .  S
C1929      C1930   1.414       .  A
C1929      C1934   1.408       .  A
C1930      C1931   1.394       .  A
C1930     Br1946   1.923       .  S
C1931      C1932   1.400       .  A
C1931      H1935   1.084       .  S
C1932      C1936   1.480       .  S
C1932      C1933   1.408       .  A
C1933      C1934   1.403       .  A
C1933     Br1945   1.918       .  S
C1934      H1937   1.083       .  S
C1936      C1938   1.402       .  A
C1936      C1942   1.407       .  A
C1938      C1939   1.400       .  A
C1938      H1943   1.084       .  S
C1939      C1940   1.415       .  A
C1939     Br1947   1.921       .  S
C1940      C1941   1.406       .  A
C1941      C1942   1.398       .  A
C1941      H1944   1.084       .  S
C1942     Br1948   1.919       .  S
C1949      C1950   1.414       .  A
C1949      C1954   1.405       .  A
C1950      C1951   1.403       .  A
C1950     Br1966   1.919       .  S
C1951      C1952   1.401       .  A
C1951      H1955   1.083       .  S
C1952      C1956   1.471       .  S
C1952      C1953   1.404       .  A
C1953      C1954   1.392       .  A
C1953     Br1965   1.921       .  S
C1954      H1957   1.084       .  S
C1956      C1958   1.398       .  A
C1956      C1962   1.405       .  A
C1958      C1959   1.397       .  A
C1958      H1963   1.084       .  S
C1959      C1960   1.418       .  A
C1959     Br1967   1.921       .  S
C1960      C1961   1.407       .  A
C1961      C1962   1.397       .  A
C1961      H1964   1.083       .  S
C1962     Br1968   1.918       .  S
C1969      C1970   1.409       .  A
C1969      C1974   1.403       .  A
C1970      C1971   1.397       .  A
C1970     Br1986   1.920       .  S
C1971      C1972   1.404       .  A
C1971      H1975   1.084       .  S
C1972      C1976   1.484       .  S
C1972      C1973   1.411       .  A
C1973      C1974   1.401       .  A
C1973     Br1985   1.920       .  S
C1974      H1977   1.084       .  S
C1976      C1978   1.403       .  A
C1976      C1982   1.409       .  A
C1978      C1979   1.398       .  A
C1978      H1983   1.084       .  S
C1979      C1980   1.414       .  A
C1979     Br1987   1.921       .  S
C1980      C1981   1.407       .  A
C1981      C1982   1.400       .  A
C1981      H1984   1.083       .  S
C1982     Br1988   1.920       .  S
C1989      C1990   1.415       .  A
C1989      C1994   1.406       .  A
C1990      C1991   1.402       .  A
C1990     Br2006   1.920       .  S
C1991      C1992   1.402       .  A
C1991      H1995   1.083       .  S
C1992      C1996   1.478       .  S
C1992      C1993   1.407       .  A
C1993      C1994   1.394       .  A
C1993     Br2005   1.922       .  S
C1994      H1997   1.084       .  S
C1996      C1998   1.400       .  A
C1996      C2002   1.408       .  A
C1998      C1999   1.399       .  A
C1998      H2003   1.084       .  S
C1999      C2000   1.418       .  A
C1999     Br2007   1.922       .  S
C2000      C2001   1.405       .  A
C2001      C2002   1.399       .  A
C2001      H2004   1.083       .  S
C2002     Br2008   1.920       .  S
C2009      C2010   1.416       .  A
C2009      C2014   1.406       .  A
C2010      C2011   1.406       .  A
C2010     Br2026   1.919       .  S
C2011      C2012   1.403       .  A
C2011      H2015   1.083       .  S
C2012      C2016   1.479       .  S
C2012      C2013   1.405       .  A
C2013      C2014   1.396       .  A
C2013     Br2025   1.919       .  S
C2014      H2017   1.083       .  S
C2016      C2018   1.402       .  A
C2016      C2022   1.404       .  A
C2018      C2019   1.402       .  A
C2018      H2023   1.084       .  S
C2019      C2020   1.416       .  A
C2019     Br2027   1.921       .  S
C2020      C2021   1.408       .  A
C2021      C2022   1.399       .  A
C2021      H2024   1.083       .  S
C2022     Br2028   1.919       .  S
C2029      C2030   1.415       .  A
C2029      C2034   1.408       .  A
C2030      C2031   1.401       .  A
C2030     Br2046   1.920       .  S
C2031      C2032   1.402       .  A
C2031      H2035   1.084       .  S
C2032      C2036   1.477       .  S
C2032      C2033   1.405       .  A
C2033      C2034   1.396       .  A
C2033     Br2045   1.919       .  S
C2034      H2037   1.083       .  S
C2036      C2038   1.400       .  A
C2036      C2042   1.408       .  A
C2038      C2039   1.393       .  A
C2038      H2043   1.084       .  S
C2039      C2040   1.413       .  A
C2039     Br2047   1.923       .  S
C2040      C2041   1.406       .  A
C2041      C2042   1.403       .  A
C2041      H2044   1.083       .  S
C2042     Br2048   1.917       .  S
C2049      C2050   1.420       .  A
C2049      C2054   1.409       .  A
C2050      C2051   1.401       .  A
C2050     Br2066   1.922       .  S
C2051      C2052   1.399       .  A
C2051      H2055   1.084       .  S
C2052      C2056   1.482       .  S
C2052      C2053   1.407       .  A
C2053      C2054   1.402       .  A
C2053     Br2065   1.919       .  S
C2054      H2057   1.083       .  S
C2056      C2058   1.401       .  A
C2056      C2062   1.406       .  A
C2058      C2059   1.399       .  A
C2058      H2063   1.084       .  S
C2059      C2060   1.416       .  A
C2059     Br2067   1.921       .  S
C2060      C2061   1.411       .  A
C2061      C2062   1.403       .  A
C2061      H2064   1.083       .  S
C2062     Br2068   1.917       .  S
C2069      C2070   1.417       .  A
C2069      C2074   1.409       .  A
C2070      C2071   1.404       .  A
C2070     Br2086   1.919       .  S
C2071      C2072   1.401       .  A
C2071      H2075   1.083       .  S
C2072      C2076   1.478       .  S
C2072      C2073   1.404       .  A
C2073      C2074   1.396       .  A
C2073     Br2085   1.920       .  S
C2074      H2077   1.083       .  S
C2076      C2078   1.402       .  A
C2076      C2082   1.405       .  A
C2078      C2079   1.402       .  A
C2078      H2083   1.084       .  S
C2079      C2080   1.415       .  A
C2079     Br2087   1.920       .  S
C2080      C2081   1.407       .  A
C2081      C2082   1.399       .  A
C2081      H2084   1.083       .  S
C2082     Br2088   1.918       .  S
C2089      C2090   1.415       .  A
C2089      C2094   1.409       .  A
C2090      C2091   1.403       .  A
C2090     Br2106   1.919       .  S
C2091      C2092   1.403       .  A
C2091      H2095   1.084       .  S
C2092      C2096   1.479       .  S
C2092      C2093   1.404       .  A
C2093      C2094   1.396       .  A
C2093     Br2105   1.919       .  S
C2094      H2097   1.083       .  S
C2096      C2098   1.401       .  A
C2096      C2102   1.407       .  A
C2098      C2099   1.396       .  A
C2098      H2103   1.084       .  S
C2099      C2100   1.413       .  A
C2099     Br2107   1.923       .  S
C2100      C2101   1.407       .  A
C2101      C2102   1.403       .  A
C2101      H2104   1.083       .  S
C2102     Br2108   1.917       .  S
C2109      C2110   1.417       .  A
C2109      C2114   1.407       .  A
C2110      C2111   1.404       .  A
C2110     Br2126   1.920       .  S
C2111      C2112   1.402       .  A
C2111      H2115   1.083       .  S
C2112      C2116   1.485       .  S
C2112      C2113   1.409       .  A
C2113      C2114   1.400       .  A
C2113     Br2125   1.920       .  S
C2114      H2117   1.083       .  S
C2116      C2118   1.403       .  A
C2116      C2122   1.406       .  A
C2118      C2119   1.403       .  A
C2118      H2123   1.083       .  S
C2119      C2120   1.413       .  A
C2119     Br2127   1.918       .  S
C2120      C2121   1.411       .  A
C2121      C2122   1.403       .  A
C2121      H2124   1.083       .  S
C2122     Br2128   1.919       .  S
C2129      C2130   1.414       .  A
C2129      C2134   1.404       .  A
C2130      C2131   1.405       .  A
C2130     Br2146   1.919       .  S
C2131      C2132   1.404       .  A
C2131      H2135   1.083       .  S
C2132      C2136   1.478       .  S
C2132      C2133   1.406       .  A
C2133      C2134   1.393       .  A
C2133     Br2145   1.920       .  S
C2134      H2137   1.084       .  S
C2136      C2138   1.400       .  A
C2136      C2142   1.407       .  A
C2138      C2139   1.401       .  A
C2138      H2143   1.084       .  S
C2139      C2140   1.417       .  A
C2139     Br2147   1.921       .  S
C2140      C2141   1.406       .  A
C2141      C2142   1.399       .  A
C2141      H2144   1.083       .  S
C2142     Br2148   1.919       .  S
C2149      C2150   1.412       .  A
C2149      C2154   1.404       .  A
C2150      C2151   1.397       .  A
C2150     Br2166   1.920       .  S
C2151      C2152   1.399       .  A
C2151      H2155   1.084       .  S
C2152      C2156   1.469       .  S
C2152      C2153   1.406       .  A
C2153      C2154   1.397       .  A
C2153     Br2165   1.920       .  S
C2154      H2157   1.083       .  S
C2156      C2158   1.400       .  A
C2156      C2162   1.405       .  A
C2158      C2159   1.400       .  A
C2158      H2163   1.083       .  S
C2159      C2160   1.412       .  A
C2159     Br2167   1.920       .  S
C2160      C2161   1.403       .  A
C2161      C2162   1.392       .  A
C2161      H2164   1.084       .  S
C2162     Br2168   1.921       .  S
C2169      C2170   1.414       .  A
C2169      C2174   1.407       .  A
C2170      C2171   1.398       .  A
C2170     Br2186   1.922       .  S
C2171      C2172   1.401       .  A
C2171      H2175   1.084       .  S
C2172      C2176   1.481       .  S
C2172      C2173   1.407       .  A
C2173      C2174   1.402       .  A
C2173     Br2185   1.917       .  S
C2174      H2177   1.083       .  S
C2176      C2178   1.401       .  A
C2176      C2182   1.405       .  A
C2178      C2179   1.400       .  A
C2178      H2183   1.084       .  S
C2179      C2180   1.415       .  A
C2179     Br2187   1.921       .  S
C2180      C2181   1.408       .  A
C2181      C2182   1.402       .  A
C2181      H2184   1.083       .  S
C2182     Br2188   1.917       .  S
C2189      C2190   1.416       .  A
C2189      C2194   1.408       .  A
C2190      C2191   1.396       .  A
C2190     Br2206   1.923       .  S
C2191      C2192   1.399       .  A
C2191      H2195   1.084       .  S
C2192      C2196   1.471       .  S
C2192      C2193   1.403       .  A
C2193      C2194   1.397       .  A
C2193     Br2205   1.917       .  S
C2194      H2197   1.083       .  S
C2196      C2198   1.401       .  A
C2196      C2202   1.405       .  A
C2198      C2199   1.395       .  A
C2198      H2203   1.084       .  S
C2199      C2200   1.410       .  A
C2199     Br2207   1.921       .  S
C2200      C2201   1.405       .  A
C2201      C2202   1.399       .  A
C2201      H2204   1.084       .  S
C2202     Br2208   1.917       .  S
C2209      C2210   1.418       .  A
C2209      C2214   1.408       .  A
C2210      C2211   1.401       .  A
C2210     Br2226   1.921       .  S
C2211      C2212   1.400       .  A
C2211      H2215   1.084       .  S
C2212      C2216   1.476       .  S
C2212      C2213   1.405       .  A
C2213      C2214   1.396       .  A
C2213     Br2225   1.919       .  S
C2214      H2217   1.083       .  S
C2216      C2218   1.398       .  A
C2216      C2222   1.404       .  A
C2218      C2219   1.397       .  A
C2218      H2223   1.084       .  S
C2219      C2220   1.420       .  A
C2219     Br2227   1.923       .  S
C2220      C2221   1.409       .  A
C2221      C2222   1.401       .  A
C2221      H2224   1.083       .  S
C2222     Br2228   1.917       .  S
C2229      C2230   1.414       .  A
C2229      C2234   1.409       .  A
C2230      C2231   1.399       .  A
C2230     Br2246   1.920       .  S
C2231      C2232   1.401       .  A
C2231      H2235   1.084       .  S
C2232      C2236   1.479       .  S
C2232      C2233   1.406       .  A
C2233      C2234   1.400       .  A
C2233     Br2245   1.919       .  S
C2234      H2237   1.083       .  S
C2236      C2238   1.401       .  A
C2236      C2242   1.407       .  A
C2238      C2239   1.397       .  A
C2238      H2243   1.084       .  S
C2239      C2240   1.416       .  A
C2239     Br2247   1.924       .  S
C2240      C2241   1.407       .  A
C2241      C2242   1.401       .  A
C2241      H2244   1.083       .  S
C2242     Br2248   1.917       .  S
C2249      C2250   1.419       .  A
C2249      C2254   1.407       .  A
C2250      C2251   1.405       .  A
C2250     Br2266   1.921       .  S
C2251      C2252   1.402       .  A
C2251      H2255   1.083       .  S
C2252      C2256   1.484       .  S
C2252      C2253   1.408       .  A
C2253      C2254   1.398       .  A
C2253     Br2265   1.921       .  S
C2254      H2257   1.083       .  S
C2256      C2258   1.402       .  A
C2256      C2262   1.406       .  A
C2258      C2259   1.403       .  A
C2258      H2263   1.084       .  S
C2259      C2260   1.418       .  A
C2259     Br2267   1.921       .  S
C2260      C2261   1.410       .  A
C2261      C2262   1.400       .  A
C2261      H2264   1.083       .  S
C2262     Br2268   1.919       .  S
C2269      C2270   1.418       .  A
C2269      C2274   1.407       .  A
C2270      C2271   1.402       .  A
C2270     Br2286   1.921       .  S
C2271      C2272   1.404       .  A
C2271      H2275   1.084       .  S
C2272      C2276   1.488       .  S
C2272      C2273   1.410       .  A
C2273      C2274   1.398       .  A
C2273     Br2285   1.920       .  S
C2274      H2277   1.083       .  S
C2276      C2278   1.405       .  A
C2276      C2282   1.413       .  A
C2278      C2279   1.403       .  A
C2278      H2283   1.083       .  S
C2279      C2280   1.413       .  A
C2279     Br2287   1.920       .  S
C2280      C2281   1.402       .  A
C2281      C2282   1.398       .  A
C2281      H2284   1.084       .  S
C2282     Br2288   1.922       .  S
C2289      C2290   1.418       .  A
C2289      C2294   1.405       .  A
C2290      C2291   1.399       .  A
C2290     Br2306   1.922       .  S
C2291      C2292   1.399       .  A
C2291      H2295   1.084       .  S
C2292      C2296   1.473       .  S
C2292      C2293   1.406       .  A
C2293      C2294   1.397       .  A
C2293     Br2305   1.919       .  S
C2294      H2297   1.083       .  S
C2296      C2298   1.402       .  A
C2296      C2302   1.404       .  A
C2298      C2299   1.404       .  A
C2298      H2303   1.083       .  S
C2299      C2300   1.414       .  A
C2299     Br2307   1.918       .  S
C2300      C2301   1.406       .  A
C2301      C2302   1.392       .  A
C2301      H2304   1.084       .  S
C2302     Br2308   1.921       .  S
C2309      C2310   1.413       .  A
C2309      C2314   1.409       .  A
C2310      C2311   1.401       .  A
C2310     Br2326   1.919       .  S
C2311      C2312   1.401       .  A
C2311      H2315   1.084       .  S
C2312      C2316   1.477       .  S
C2312      C2313   1.405       .  A
C2313      C2314   1.400       .  A
C2313     Br2325   1.919       .  S
C2314      H2317   1.083       .  S
C2316      C2318   1.401       .  A
C2316      C2322   1.405       .  A
C2318      C2319   1.404       .  A
C2318      H2323   1.083       .  S
C2319      C2320   1.417       .  A
C2319     Br2327   1.920       .  S
C2320      C2321   1.406       .  A
C2321      C2322   1.396       .  A
C2321      H2324   1.083       .  S
C2322     Br2328   1.919       .  S
C2329      C2330   1.415       .  A
C2329      C2334   1.405       .  A
C2330      C2331   1.397       .  A
C2330     Br2346   1.921       .  S
C2331      C2332   1.398       .  A
C2331      H2335   1.084       .  S
C2332      C2336   1.470       .  S
C2332      C2333   1.406       .  A
C2333      C2334   1.398       .  A
C2333     Br2345   1.919       .  S
C2334      H2337   1.083       .  S
C2336      C2338   1.401       .  A
C2336      C2342   1.404       .  A
C2338      C2339   1.402       .  A
C2338      H2343   1.083       .  S
C2339      C2340   1.414       .  A
C2339     Br2347   1.918       .  S
C2340      C2341   1.406       .  A
C2341      C2342   1.392       .  A
C2341      H2344   1.084       .  S
C2342     Br2348   1.921       .  S
C2349      C2350   1.414       .  A
C2349      C2354   1.407       .  A
C2350      C2351   1.405       .  A
C2350     Br2366   1.918       .  S
C2351      C2352   1.403       .  A
C2351      H2355   1.083       .  S
C2352      C2356   1.478       .  S
C2352      C2353   1.405       .  A
C2353      C2354   1.395       .  A
C2353     Br2365   1.919       .  S
C2354      H2357   1.084       .  S
C2356      C2358   1.400       .  A
C2356      C2362   1.406       .  A
C2358      C2359   1.397       .  A
C2358      H2363   1.084       .  S
C2359      C2360   1.415       .  A
C2359     Br2367   1.923       .  S
C2360      C2361   1.408       .  A
C2361      C2362   1.404       .  A
C2361      H2364   1.083       .  S
C2362     Br2368   1.916       .  S
C2369      C2370   1.420       .  A
C2369      C2374   1.409       .  A
C2370      C2371   1.402       .  A
C2370     Br2386   1.921       .  S
C2371      C2372   1.399       .  A
C2371      H2375   1.084       .  S
C2372      C2376   1.475       .  S
C2372      C2373   1.404       .  A
C2373      C2374   1.397       .  A
C2373     Br2385   1.920       .  S
C2374      H2377   1.083       .  S
C2376      C2378   1.400       .  A
C2376      C2382   1.403       .  A
C2378      C2379   1.400       .  A
C2378      H2383   1.084       .  S
C2379      C2380   1.418       .  A
C2379     Br2387   1.922       .  S
C2380      C2381   1.408       .  A
C2381      C2382   1.398       .  A
C2381      H2384   1.083       .  S
C2382     Br2388   1.917       .  S
C2389      C2390   1.414       .  A
C2389      C2394   1.408       .  A
C2390      C2391   1.401       .  A
C2390     Br2406   1.919       .  S
C2391      C2392   1.405       .  A
C2391      H2395   1.083       .  S
C2392      C2396   1.485       .  S
C2392      C2393   1.408       .  A
C2393      C2394   1.398       .  A
C2393     Br2405   1.920       .  S
C2394      H2397   1.083       .  S
C2396      C2398   1.405       .  A
C2396      C2402   1.411       .  A
C2398      C2399   1.396       .  A
C2398      H2403   1.084       .  S
C2399      C2400   1.409       .  A
C2399     Br2407   1.923       .  S
C2400      C2401   1.403       .  A
C2401      C2402   1.401       .  A
C2401      H2404   1.084       .  S
C2402     Br2408   1.918       .  S
C2409      C2410   1.416       .  A
C2409      C2414   1.411       .  A
C2410      C2411   1.401       .  A
C2410     Br2426   1.920       .  S
C2411      C2412   1.402       .  A
C2411      H2415   1.084       .  S
C2412      C2416   1.479       .  S
C2412      C2413   1.404       .  A
C2413      C2414   1.400       .  A
C2413     Br2425   1.918       .  S
C2414      H2417   1.083       .  S
C2416      C2418   1.401       .  A
C2416      C2422   1.406       .  A
C2418      C2419   1.403       .  A
C2418      H2423   1.083       .  S
C2419      C2420   1.417       .  A
C2419     Br2427   1.920       .  S
C2420      C2421   1.408       .  A
C2421      C2422   1.398       .  A
C2421      H2424   1.083       .  S
C2422     Br2428   1.921       .  S
C2429      C2430   1.414       .  A
C2429      C2434   1.406       .  A
C2430      C2431   1.402       .  A
C2430     Br2446   1.919       .  S
C2431      C2432   1.401       .  A
C2431      H2435   1.083       .  S
C2432      C2436   1.470       .  S
C2432      C2433   1.404       .  A
C2433      C2434   1.392       .  A
C2433     Br2445   1.921       .  S
C2434      H2437   1.084       .  S
C2436      C2438   1.397       .  A
C2436      C2442   1.405       .  A
C2438      C2439   1.396       .  A
C2438      H2443   1.084       .  S
C2439      C2440   1.418       .  A
C2439     Br2447   1.922       .  S
C2440      C2441   1.408       .  A
C2441      C2442   1.398       .  A
C2441      H2444   1.083       .  S
C2442     Br2448   1.918       .  S
C2449      C2450   1.417       .  A
C2449      C2454   1.409       .  A
C2450      C2451   1.400       .  A
C2450     Br2466   1.921       .  S
C2451      C2452   1.400       .  A
C2451      H2455   1.084       .  S
C2452      C2456   1.476       .  S
C2452      C2453   1.404       .  A
C2453      C2454   1.398       .  A
C2453     Br2465   1.918       .  S
C2454      H2457   1.083       .  S
C2456      C2458   1.399       .  A
C2456      C2462   1.406       .  A
C2458      C2459   1.401       .  A
C2458      H2463   1.084       .  S
C2459      C2460   1.418       .  A
C2459     Br2467   1.921       .  S
C2460      C2461   1.407       .  A
C2461      C2462   1.396       .  A
C2461      H2464   1.083       .  S
C2462     Br2468   1.920       .  S
C2469      C2470   1.418       .  A
C2469      C2474   1.410       .  A
C2470      C2471   1.400       .  A
C2470     Br2486   1.921       .  S
C2471      C2472   1.400       .  A
C2471      H2475   1.084       .  S
C2472      C2476   1.479       .  S
C2472      C2473   1.404       .  A
C2473      C2474   1.401       .  A
C2473     Br2485   1.917       .  S
C2474      H2477   1.083       .  S
C2476      C2478   1.400       .  A
C2476      C2482   1.405       .  A
C2478      C2479   1.402       .  A
C2478      H2483   1.084       .  S
C2479      C2480   1.419       .  A
C2479     Br2487   1.921       .  S
C2480      C2481   1.408       .  A
C2481      C2482   1.398       .  A
C2481      H2484   1.083       .  S
C2482     Br2488   1.918       .  S
C2489      C2490   1.416       .  A
C2489      C2494   1.406       .  A
C2490      C2491   1.403       .  A
C2490     Br2506   1.919       .  S
C2491      C2492   1.402       .  A
C2491      H2495   1.083       .  S
C2492      C2496   1.479       .  S
C2492      C2493   1.407       .  A
C2493      C2494   1.396       .  A
C2493     Br2505   1.921       .  S
C2494      H2497   1.084       .  S
C2496      C2498   1.402       .  A
C2496      C2502   1.409       .  A
C2498      C2499   1.399       .  A
C2498      H2503   1.083       .  S
C2499      C2500   1.412       .  A
C2499     Br2507   1.921       .  S
C2500      C2501   1.403       .  A
C2501      C2502   1.399       .  A
C2501      H2504   1.084       .  S
C2502     Br2508   1.919       .  S
C2509      C2510   1.417       .  A
C2509      C2514   1.408       .  A
C2510      C2511   1.402       .  A
C2510     Br2526   1.920       .  S
C2511      C2512   1.400       .  A
C2511      H2515   1.084       .  S
C2512      C2516   1.479       .  S
C2512      C2513   1.406       .  A
C2513      C2514   1.398       .  A
C2513     Br2525   1.919       .  S
C2514      H2517   1.083       .  S
C2516      C2518   1.401       .  A
C2516      C2522   1.405       .  A
C2518      C2519   1.401       .  A
C2518      H2523   1.084       .  S
C2519      C2520   1.414       .  A
C2519     Br2527   1.920       .  S
C2520      C2521   1.408       .  A
C2521      C2522   1.400       .  A
C2521      H2524   1.083       .  S
C2522     Br2528   1.918       .  S
C2529      C2530   1.415       .  A
C2529      C2534   1.405       .  A
C2530      C2531   1.395       .  A
C2530     Br2546   1.922       .  S
C2531      C2532   1.399       .  A
C2531      H2535   1.084       .  S
C2532      C2536   1.475       .  S
C2532      C2533   1.406       .  A
C2533      C2534   1.401       .  A
C2533     Br2545   1.917       .  S
C2534      H2537   1.083       .  S
C2536      C2538   1.401       .  A
C2536      C2542   1.403       .  A
C2538      C2539   1.402       .  A
C2538      H2543   1.084       .  S
C2539      C2540   1.418       .  A
C2539     Br2547   1.921       .  S
C2540      C2541   1.408       .  A
C2541      C2542   1.395       .  A
C2541      H2544   1.083       .  S
C2542     Br2548   1.920       .  S
C2549      C2550   1.417       .  A
C2549      C2554   1.407       .  A
C2550      C2551   1.402       .  A
C2550     Br2566   1.921       .  S
C2551      C2552   1.401       .  A
C2551      H2555   1.084       .  S
C2552      C2556   1.481       .  S
C2552      C2553   1.408       .  A
C2553      C2554   1.397       .  A
C2553     Br2565   1.921       .  S
C2554      H2557   1.083       .  S
C2556      C2558   1.402       .  A
C2556      C2562   1.406       .  A
C2558      C2559   1.401       .  A
C2558      H2563   1.084       .  S
C2559      C2560   1.415       .  A
C2559     Br2567   1.921       .  S
C2560      C2561   1.408       .  A
C2561      C2562   1.399       .  A
C2561      H2564   1.083       .  S
C2562     Br2568   1.918       .  S
C2569      C2570   1.419       .  A
C2569      C2574   1.410       .  A
C2570      C2571   1.398       .  A
C2570     Br2586   1.923       .  S
C2571      C2572   1.399       .  A
C2571      H2575   1.084       .  S
C2572      C2576   1.478       .  S
C2572      C2573   1.404       .  A
C2573      C2574   1.401       .  A
C2573     Br2585   1.917       .  S
C2574      H2577   1.083       .  S
C2576      C2578   1.400       .  A
C2576      C2582   1.404       .  A
C2578      C2579   1.402       .  A
C2578      H2583   1.084       .  S
C2579      C2580   1.418       .  A
C2579     Br2587   1.920       .  S
C2580      C2581   1.409       .  A
C2581      C2582   1.398       .  A
C2581      H2584   1.083       .  S
C2582     Br2588   1.919       .  S
C2589      C2590   1.414       .  A
C2589      C2594   1.406       .  A
C2590      C2591   1.401       .  A
C2590     Br2606   1.920       .  S
C2591      C2592   1.404       .  A
C2591      H2595   1.084       .  S
C2592      C2596   1.479       .  S
C2592      C2593   1.406       .  A
C2593      C2594   1.394       .  A
C2593     Br2605   1.920       .  S
C2594      H2597   1.084       .  S
C2596      C2598   1.403       .  A
C2596      C2602   1.408       .  A
C2598      C2599   1.394       .  A
C2598      H2603   1.084       .  S
C2599      C2600   1.409       .  A
C2599     Br2607   1.923       .  S
C2600      C2601   1.404       .  A
C2601      C2602   1.402       .  A
C2601      H2604   1.083       .  S
C2602     Br2608   1.917       .  S
C2609      C2610   1.416       .  A
C2609      C2614   1.405       .  A
C2610      C2611   1.403       .  A
C2610     Br2626   1.919       .  S
C2611      C2612   1.401       .  A
C2611      H2615   1.083       .  S
C2612      C2616   1.474       .  S
C2612      C2613   1.406       .  A
C2613      C2614   1.393       .  A
C2613     Br2625   1.920       .  S
C2614      H2617   1.083       .  S
C2616      C2618   1.398       .  A
C2616      C2622   1.404       .  A
C2618      C2619   1.396       .  A
C2618      H2623   1.084       .  S
C2619      C2620   1.419       .  A
C2619     Br2627   1.924       .  S
C2620      C2621   1.408       .  A
C2621      C2622   1.398       .  A
C2621      H2624   1.083       .  S
C2622     Br2628   1.917       .  S
C2629      C2630   1.414       .  A
C2629      C2634   1.405       .  A
C2630      C2631   1.404       .  A
C2630     Br2646   1.919       .  S
C2631      C2632   1.403       .  A
C2631      H2635   1.083       .  S
C2632      C2636   1.475       .  S
C2632      C2633   1.405       .  A
C2633      C2634   1.393       .  A
C2633     Br2645   1.921       .  S
C2634      H2637   1.084       .  S
C2636      C2638   1.400       .  A
C2636      C2642   1.405       .  A
C2638      C2639   1.399       .  A
C2638      H2643   1.084       .  S
C2639      C2640   1.416       .  A
C2639     Br2647   1.921       .  S
C2640      C2641   1.407       .  A
C2641      C2642   1.397       .  A
C2641      H2644   1.083       .  S
C2642     Br2648   1.918       .  S
C2649      C2650   1.417       .  A
C2649      C2654   1.409       .  A
C2650      C2651   1.397       .  A
C2650     Br2666   1.923       .  S
C2651      C2652   1.400       .  A
C2651      H2655   1.084       .  S
C2652      C2656   1.477       .  S
C2652      C2653   1.404       .  A
C2653      C2654   1.399       .  A
C2653     Br2665   1.918       .  S
C2654      H2657   1.083       .  S
C2656      C2658   1.399       .  A
C2656      C2662   1.407       .  A
C2658      C2659   1.401       .  A
C2658      H2663   1.084       .  S
C2659      C2660   1.419       .  A
C2659     Br2667   1.921       .  S
C2660      C2661   1.407       .  A
C2661      C2662   1.397       .  A
C2661      H2664   1.083       .  S
C2662     Br2668   1.921       .  S
C2669      C2670   1.413       .  A
C2669      C2674   1.403       .  A
C2670      C2671   1.404       .  A
C2670     Br2686   1.919       .  S
C2671      C2672   1.403       .  A
C2671      H2675   1.083       .  S
C2672      C2676   1.472       .  S
C2672      C2673   1.405       .  A
C2673      C2674   1.389       .  A
C2673     Br2685   1.922       .  S
C2674      H2677   1.084       .  S
C2676      C2678   1.399       .  A
C2676      C2682   1.408       .  A
C2678      C2679   1.398       .  A
C2678      H2683   1.084       .  S
C2679      C2680   1.415       .  A
C2679     Br2687   1.921       .  S
C2680      C2681   1.405       .  A
C2681      C2682   1.397       .  A
C2681      H2684   1.083       .  S
C2682     Br2688   1.921       .  S
C2689      C2690   1.417       .  A
C2689      C2694   1.406       .  A
C2690      C2691   1.404       .  A
C2690     Br2706   1.920       .  S
C2691      C2692   1.402       .  A
C2691      H2695   1.083       .  S
C2692      C2696   1.481       .  S
C2692      C2693   1.406       .  A
C2693      C2694   1.398       .  A
C2693     Br2705   1.919       .  S
C2694      H2697   1.083       .  S
C2696      C2698   1.400       .  A
C2696      C2702   1.406       .  A
C2698      C2699   1.399       .  A
C2698      H2703   1.084       .  S
C2699      C2700   1.415       .  A
C2699     Br2707   1.921       .  S
C2700      C2701   1.409       .  A
C2701      C2702   1.404       .  A
C2701      H2704   1.083       .  S
C2702     Br2708   1.918       .  S
C2709      C2710   1.417       .  A
C2709      C2714   1.410       .  A
C2710      C2711   1.400       .  A
C2710     Br2726   1.921       .  S
C2711      C2712   1.400       .  A
C2711      H2715   1.084       .  S
C2712      C2716   1.473       .  S
C2712      C2713   1.402       .  A
C2713      C2714   1.397       .  A
C2713     Br2725   1.918       .  S
C2714      H2717   1.083       .  S
C2716      C2718   1.399       .  A
C2716      C2722   1.404       .  A
C2718      C2719   1.401       .  A
C2718      H2723   1.084       .  S
C2719      C2720   1.418       .  A
C2719     Br2727   1.921       .  S
C2720      C2721   1.407       .  A
C2721      C2722   1.395       .  A
C2721      H2724   1.083       .  S
C2722     Br2728   1.920       .  S
C2729      C2730   1.415       .  A
C2729      C2734   1.406       .  A
C2730      C2731   1.404       .  A
C2730     Br2746   1.918       .  S
C2731      C2732   1.401       .  A
C2731      H2735   1.083       .  S
C2732      C2736   1.473       .  S
C2732      C2733   1.404       .  A
C2733      C2734   1.393       .  A
C2733     Br2745   1.921       .  S
C2734      H2737   1.084       .  S
C2736      C2738   1.399       .  A
C2736      C2742   1.406       .  A
C2738      C2739   1.399       .  A
C2738      H2743   1.084       .  S
C2739      C2740   1.417       .  A
C2739     Br2747   1.922       .  S
C2740      C2741   1.405       .  A
C2741      C2742   1.398       .  A
C2741      H2744   1.083       .  S
C2742     Br2748   1.919       .  S
C2749      C2750   1.419       .  A
C2749      C2754   1.406       .  A
C2750      C2751   1.405       .  A
C2750     Br2766   1.920       .  S
C2751      C2752   1.402       .  A
C2751      H2755   1.083       .  S
C2752      C2756   1.486       .  S
C2752      C2753   1.408       .  A
C2753      C2754   1.399       .  A
C2753     Br2765   1.919       .  S
C2754      H2757   1.083       .  S
C2756      C2758   1.402       .  A
C2756      C2762   1.407       .  A
C2758      C2759   1.400       .  A
C2758      H2763   1.084       .  S
C2759      C2760   1.417       .  A
C2759     Br2767   1.922       .  S
C2760      C2761   1.409       .  A
C2761      C2762   1.404       .  A
C2761      H2764   1.083       .  S
C2762     Br2768   1.917       .  S
C2769      C2770   1.418       .  A
C2769      C2774   1.406       .  A
C2770      C2771   1.400       .  A
C2770     Br2786   1.922       .  S
C2771      C2772   1.401       .  A
C2771      H2775   1.084       .  S
C2772      C2776   1.482       .  S
C2772      C2773   1.408       .  A
C2773      C2774   1.398       .  A
C2773     Br2785   1.920       .  S
C2774      H2777   1.083       .  S
C2776      C2778   1.401       .  A
C2776      C2782   1.408       .  A
C2778      C2779   1.401       .  A
C2778      H2783   1.084       .  S
C2779      C2780   1.419       .  A
C2779     Br2787   1.922       .  S
C2780      C2781   1.406       .  A
C2781      C2782   1.398       .  A
C2781      H2784   1.083       .  S
C2782     Br2788   1.921       .  S
C2789      C2790   1.419       .  A
C2789      C2794   1.410       .  A
C2790      C2791   1.400       .  A
C2790     Br2806   1.923       .  S
C2791      C2792   1.400       .  A
C2791      H2795   1.084       .  S
C2792      C2796   1.482       .  S
C2792      C2793   1.406       .  A
C2793      C2794   1.402       .  A
C2793     Br2805   1.919       .  S
C2794      H2797   1.083       .  S
C2796      C2798   1.401       .  A
C2796      C2802   1.407       .  A
C2798      C2799   1.402       .  A
C2798      H2803   1.084       .  S
C2799      C2800   1.420       .  A
C2799     Br2807   1.922       .  S
C2800      C2801   1.408       .  A
C2801      C2802   1.398       .  A
C2801      H2804   1.083       .  S
C2802     Br2808   1.920       .  S
C2809      C2810   1.414       .  A
C2809      C2814   1.408       .  A
C2810      C2811   1.402       .  A
C2810     Br2826   1.920       .  S
C2811      C2812   1.403       .  A
C2811      H2815   1.084       .  S
C2812      C2816   1.480       .  S
C2812      C2813   1.405       .  A
C2813      C2814   1.398       .  A
C2813     Br2825   1.918       .  S
C2814      H2817   1.083       .  S
C2816      C2818   1.400       .  A
C2816      C2822   1.407       .  A
C2818      C2819   1.403       .  A
C2818      H2823   1.084       .  S
C2819      C2820   1.419       .  A
C2819     Br2827   1.920       .  S
C2820      C2821   1.409       .  A
C2821      C2822   1.399       .  A
C2821      H2824   1.083       .  S
C2822     Br2828   1.920       .  S
C2829      C2830   1.416       .  A
C2829      C2834   1.404       .  A
C2830      C2831   1.402       .  A
C2830     Br2846   1.921       .  S
C2831      C2832   1.401       .  A
C2831      H2835   1.083       .  S
C2832      C2836   1.476       .  S
C2832      C2833   1.406       .  A
C2833      C2834   1.397       .  A
C2833     Br2845   1.920       .  S
C2834      H2837   1.083       .  S
C2836      C2838   1.401       .  A
C2836      C2842   1.404       .  A
C2838      C2839   1.403       .  A
C2838      H2843   1.083       .  S
C2839      C2840   1.419       .  A
C2839     Br2847   1.920       .  S
C2840      C2841   1.408       .  A
C2841      C2842   1.396       .  A
C2841      H2844   1.083       .  S
C2842     Br2848   1.921       .  S
C2849      C2850   1.412       .  A
C2849      C2854   1.407       .  A
C2850      C2851   1.391       .  A
C2850     Br2866   1.923       .  S
C2851      C2852   1.400       .  A
C2851      H2855   1.084       .  S
C2852      C2856   1.476       .  S
C2852      C2853   1.407       .  A
C2853      C2854   1.404       .  A
C2853     Br2865   1.917       .  S
C2854      H2857   1.083       .  S
C2856      C2858   1.404       .  A
C2856      C2862   1.404       .  A
C2858      C2859   1.402       .  A
C2858      H2863   1.084       .  S
C2859      C2860   1.413       .  A
C2859     Br2867   1.920       .  S
C2860      C2861   1.406       .  A
C2861      C2862   1.394       .  A
C2861      H2864   1.084       .  S
C2862     Br2868   1.920       .  S
C2869      C2870   1.418       .  A
C2869      C2874   1.409       .  A
C2870      C2871   1.400       .  A
C2870     Br2886   1.921       .  S
C2871      C2872   1.401       .  A
C2871      H2875   1.084       .  S
C2872      C2876   1.478       .  S
C2872      C2873   1.405       .  A
C2873      C2874   1.397       .  A
C2873     Br2885   1.919       .  S
C2874      H2877   1.083       .  S
C2876      C2878   1.402       .  A
C2876      C2882   1.409       .  A
C2878      C2879   1.395       .  A
C2878      H2883   1.084       .  S
C2879      C2880   1.411       .  A
C2879     Br2887   1.923       .  S
C2880      C2881   1.403       .  A
C2881      C2882   1.400       .  A
C2881      H2884   1.084       .  S
C2882     Br2888   1.917       .  S
C2889      C2890   1.418       .  A
C2889      C2894   1.408       .  A
C2890      C2891   1.404       .  A
C2890     Br2906   1.921       .  S
C2891      C2892   1.403       .  A
C2891      H2895   1.084       .  S
C2892      C2896   1.485       .  S
C2892      C2893   1.407       .  A
C2893      C2894   1.399       .  A
C2893     Br2905   1.919       .  S
C2894      H2897   1.083       .  S
C2896      C2898   1.402       .  A
C2896      C2902   1.408       .  A
C2898      C2899   1.404       .  A
C2898      H2903   1.084       .  S
C2899      C2900   1.418       .  A
C2899     Br2907   1.920       .  S
C2900      C2901   1.408       .  A
C2901      C2902   1.399       .  A
C2901      H2904   1.083       .  S
C2902     Br2908   1.921       .  S
C2909      C2910   1.415       .  A
C2909      C2914   1.407       .  A
C2910      C2911   1.396       .  A
C2910     Br2926   1.924       .  S
C2911      C2912   1.400       .  A
C2911      H2915   1.084       .  S
C2912      C2916   1.479       .  S
C2912      C2913   1.407       .  A
C2913      C2914   1.405       .  A
C2913     Br2925   1.917       .  S
C2914      H2917   1.083       .  S
C2916      C2918   1.403       .  A
C2916      C2922   1.403       .  A
C2918      C2919   1.403       .  A
C2918      H2923   1.084       .  S
C2919      C2920   1.418       .  A
C2919     Br2927   1.922       .  S
C2920      C2921   1.408       .  A
C2921      C2922   1.396       .  A
C2921      H2924   1.083       .  S
C2922     Br2928   1.917       .  S
C2929      C2930   1.417       .  A
C2929      C2934   1.404       .  A
C2930      C2931   1.401       .  A
C2930     Br2946   1.921       .  S
C2931      C2932   1.400       .  A
C2931      H2935   1.083       .  S
C2932      C2936   1.471   1_556  S
C2932      C2933   1.405       .  A
C2933      C2934   1.393       .  A
C2933     Br2945   1.920       .  S
C2934      H2937   1.083       .  S
C2936      C2938   1.400       .  A
C2936      C2942   1.403       .  A
C2938      C2939   1.399       .  A
C2938      H2943   1.084       .  S
C2939      C2940   1.415       .  A
C2939     Br2947   1.921       .  S
C2940      C2941   1.408       .  A
C2941      C2942   1.397       .  A
C2941      H2944   1.083       .  S
C2942     Br2948   1.918   1_554  S
C2949      C2950   1.418       .  A
C2949      C2954   1.408       .  A
C2950      C2951   1.399       .  A
C2950     Br2966   1.923       .  S
C2951      C2952   1.402       .  A
C2951      H2955   1.084       .  S
C2952      C2956   1.481       .  S
C2952      C2953   1.406       .  A
C2953      C2954   1.398       .  A
C2953     Br2965   1.919       .  S
C2954      H2957   1.083       .  S
C2956      C2958   1.402       .  A
C2956      C2962   1.409       .  A
C2958      C2959   1.401       .  A
C2958      H2963   1.083       .  S
C2959      C2960   1.415       .  A
C2959     Br2967   1.920       .  S
C2960      C2961   1.406       .  A
C2961      C2962   1.398       .  A
C2961      H2964   1.083       .  S
C2962     Br2968   1.921       .  S
C2969      C2970   1.418       .  A
C2969      C2974   1.410       .  A
C2970      C2971   1.397       .  A
C2970     Br2986   1.922       .  S
C2971      C2972   1.399       .  A
C2971      H2975   1.084       .  S
C2972      C2976   1.471       .  S
C2972      C2973   1.402       .  A
C2973      C2974   1.398       .  A
C2973     Br2985   1.918       .  S
C2974      H2977   1.083       .  S
C2976      C2978   1.400       .  A
C2976      C2982   1.404       .  A
C2978      C2979   1.401       .  A
C2978      H2983   1.083       .  S
C2979      C2980   1.416       .  A
C2979     Br2987   1.921       .  S
C2980      C2981   1.406       .  A
C2981      C2982   1.393       .  A
C2981      H2984   1.083       .  S
C2982     Br2988   1.920       .  S
C2989      C2990   1.412       .  A
C2989      C2994   1.402       .  A
C2990      C2991   1.402       .  A
C2990     Br3006   1.920       .  S
C2991      C2992   1.403       .  A
C2991      H2995   1.083       .  S
C2992      C2996   1.475       .  S
C2992      C2993   1.407       .  A
C2993      C2994   1.392       .  A
C2993     Br3005   1.921       .  S
C2994      H2997   1.084       .  S
C2996      C2998   1.400       .  A
C2996      C3002   1.407       .  A
C2998      C2999   1.397       .  A
C2998      H3003   1.084       .  S
C2999      C3000   1.414       .  A
C2999     Br3007   1.920       .  S
C3000      C3001   1.407       .  A
C3001      C3002   1.399       .  A
C3001      H3004   1.083       .  S
C3002     Br3008   1.920       .  S
C3009      C3010   1.413       .  A
C3009      C3014   1.405       .  A
C3010      C3011   1.399       .  A
C3010     Br3026   1.922       .  S
C3011      C3012   1.401       .  A
C3011      H3015   1.084       .  S
C3012      C3016   1.477       .  S
C3012      C3013   1.407       .  A
C3013      C3014   1.398       .  A
C3013     Br3025   1.919       .  S
C3014      H3017   1.084       .  S
C3016      C3018   1.401       .  A
C3016      C3022   1.407       .  A
C3018      C3019   1.395       .  A
C3018      H3023   1.084       .  S
C3019      C3020   1.411       .  A
C3019     Br3027   1.922       .  S
C3020      C3021   1.405       .  A
C3021      C3022   1.401       .  A
C3021      H3024   1.083       .  S
C3022     Br3028   1.917       .  S
C3029      C3030   1.419       .  A
C3029      C3034   1.409       .  A
C3030      C3031   1.401       .  A
C3030     Br3046   1.923       .  S
C3031      C3032   1.400       .  A
C3031      H3035   1.084       .  S
C3032      C3036   1.479       .  S
C3032      C3033   1.404       .  A
C3033      C3034   1.399       .  A
C3033     Br3045   1.918       .  S
C3034      H3037   1.083       .  S
C3036      C3038   1.400       .  A
C3036      C3042   1.406       .  A
C3038      C3039   1.403       .  A
C3038      H3043   1.083       .  S
C3039      C3040   1.420       .  A
C3039     Br3047   1.921       .  S
C3040      C3041   1.408       .  A
C3041      C3042   1.398       .  A
C3041      H3044   1.083       .  S
C3042     Br3048   1.920       .  S
C3049      C3050   1.417       .  A
C3049      C3054   1.405       .  A
C3050      C3051   1.399       .  A
C3050     Br3066   1.922       .  S
C3051      C3052   1.399       .  A
C3051      H3055   1.084       .  S
C3052      C3056   1.474       .  S
C3052      C3053   1.406       .  A
C3053      C3054   1.398       .  A
C3053     Br3065   1.919       .  S
C3054      H3057   1.083       .  S
C3056      C3058   1.403       .  A
C3056      C3062   1.406       .  A
C3058      C3059   1.404       .  A
C3058      H3063   1.083       .  S
C3059      C3060   1.412       .  A
C3059     Br3067   1.919       .  S
C3060      C3061   1.403       .  A
C3061      C3062   1.392       .  A
C3061      H3064   1.084       .  S
C3062     Br3068   1.921       .  S
C3069      C3070   1.416       .  A
C3069      C3074   1.405       .  A
C3070      C3071   1.405       .  A
C3070     Br3086   1.920       .  S
C3071      C3072   1.403       .  A
C3071      H3075   1.083       .  S
C3072      C3076   1.479       .  S
C3072      C3073   1.406       .  A
C3073      C3074   1.394       .  A
C3073     Br3085   1.921       .  S
C3074      H3077   1.084       .  S
C3076      C3078   1.401       .  A
C3076      C3082   1.406       .  A
C3078      C3079   1.400       .  A
C3078      H3083   1.084       .  S
C3079      C3080   1.418       .  A
C3079     Br3087   1.922       .  S
C3080      C3081   1.407       .  A
C3081      C3082   1.399       .  A
C3081      H3084   1.083       .  S
C3082     Br3088   1.918       .  S
C3089      C3090   1.418       .  A
C3089      C3094   1.408       .  A
C3090      C3091   1.401       .  A
C3090     Br3106   1.921       .  S
C3091      C3092   1.400       .  A
C3091      H3095   1.084       .  S
C3092      C3096   1.478       .  S
C3092      C3093   1.406       .  A
C3093      C3094   1.397       .  A
C3093     Br3105   1.920       .  S
C3094      H3097   1.083       .  S
C3096      C3098   1.402       .  A
C3096      C3102   1.406       .  A
C3098      C3099   1.399       .  A
C3098      H3103   1.084       .  S
C3099      C3100   1.412       .  A
C3099     Br3107   1.919       .  S
C3100      C3101   1.407       .  A
C3101      C3102   1.399       .  A
C3101      H3104   1.083       .  S
C3102     Br3108   1.919       .  S
C3109      C3110   1.420       .  A
C3109      C3114   1.407       .  A
C3110      C3111   1.398       .  A
C3110     Br3126   1.923       .  S
C3111      C3112   1.398       .  A
C3111      H3115   1.084       .  S
C3112      C3116   1.470       .  S
C3112      C3113   1.404       .  A
C3113      C3114   1.396       .  A
C3113     Br3125   1.918       .  S
C3114      H3117   1.083       .  S
C3116      C3118   1.400       .  A
C3116      C3122   1.403       .  A
C3118      C3119   1.403       .  A
C3118      H3123   1.083       .  S
C3119      C3120   1.417       .  A
C3119     Br3127   1.919       .  S
C3120      C3121   1.408       .  A
C3121      C3122   1.391       .  A
C3121      H3124   1.083       .  S
C3122     Br3128   1.922       .  S
C3129      C3130   1.417       .  A
C3129      C3134   1.409       .  A
C3130      C3131   1.401       .  A
C3130     Br3146   1.922       .  S
C3131      C3132   1.401       .  A
C3131      H3135   1.084       .  S
C3132      C3136   1.480       .  S
C3132      C3133   1.405       .  A
C3133      C3134   1.401       .  A
C3133     Br3145   1.918       .  S
C3134      H3137   1.083       .  S
C3136      C3138   1.399       .  A
C3136      C3142   1.405       .  A
C3138      C3139   1.403       .  A
C3138      H3143   1.084       .  S
C3139      C3140   1.421       .  A
C3139     Br3147   1.922       .  S
C3140      C3141   1.409       .  A
C3141      C3142   1.400       .  A
C3141      H3144   1.083       .  S
C3142     Br3148   1.919       .  S
C3149      C3150   1.416       .  A
C3149      C3154   1.408       .  A
C3150      C3151   1.400       .  A
C3150     Br3166   1.920       .  S
C3151      C3152   1.399       .  A
C3151      H3155   1.084       .  S
C3152      C3156   1.469       .  S
C3152      C3153   1.404       .  A
C3153      C3154   1.393       .  A
C3153     Br3165   1.921       .  S
C3154      H3157   1.084       .  S
C3156      C3158   1.399       .  A
C3156      C3162   1.406       .  A
C3158      C3159   1.398       .  A
C3158      H3163   1.084       .  S
C3159      C3160   1.413       .  A
C3159     Br3167   1.920       .  S
C3160      C3161   1.404       .  A
C3161      C3162   1.396       .  A
C3161      H3164   1.084       .  S
C3162     Br3168   1.920       .  S
C3169      C3170   1.420       .  A
C3169      C3174   1.409       .  A
C3170      C3171   1.401       .  A
C3170     Br3186   1.922       .  S
C3171      C3172   1.400       .  A
C3171      H3175   1.084       .  S
C3172      C3176   1.482       .  S
C3172      C3173   1.405       .  A
C3173      C3174   1.401       .  A
C3173     Br3185   1.917       .  S
C3174      H3177   1.083       .  S
C3176      C3178   1.400       .  A
C3176      C3182   1.406       .  A
C3178      C3179   1.403       .  A
C3178      H3183   1.084       .  S
C3179      C3180   1.420       .  A
C3179     Br3187   1.921       .  S
C3180      C3181   1.409       .  A
C3181      C3182   1.400       .  A
C3181      H3184   1.083       .  S
C3182     Br3188   1.919       .  S
C3189      C3190   1.408       .  A
C3189      C3194   1.404       .  A
C3190      C3191   1.404       .  A
C3190     Br3206   1.917       .  S
C3191      C3192   1.407       .  A
C3191      H3195   1.083       .  S
C3192      C3196   1.488       .  S
C3192      C3193   1.410       .  A
C3193      C3194   1.399       .  A
C3193     Br3205   1.921       .  S
C3194      H3197   1.084       .  S
C3196      C3198   1.407   1_565  A
C3196      C3202   1.411       .  A
C3198      C3199   1.403       .  A
C3198      H3203   1.083       .  S
C3199      C3200   1.407       .  A
C3199     Br3207   1.917       .  S
C3200      C3201   1.403       .  A
C3201      C3202   1.399   1_545  A
C3201      H3204   1.084       .  S
C3202     Br3208   1.920       .  S
C3209      C3210   1.420       .  A
C3209      C3214   1.412       .  A
C3210      C3211   1.401       .  A
C3210     Br3226   1.921       .  S
C3211      C3212   1.400       .  A
C3211      H3215   1.084       .  S
C3212      C3216   1.483       .  S
C3212      C3213   1.405       .  A
C3213      C3214   1.405       .  A
C3213     Br3225   1.917       .  S
C3214      H3217   1.083       .  S
C3216      C3218   1.403       .  A
C3216      C3222   1.405       .  A
C3218      C3219   1.407       .  A
C3218      H3223   1.083       .  S
C3219      C3220   1.419       .  A
C3219     Br3227   1.921       .  S
C3220      C3221   1.407       .  A
C3221      C3222   1.397       .  A
C3221      H3224   1.083       .  S
C3222     Br3228   1.919       .  S
C3229      C3230   1.416       .  A
C3229      C3234   1.407       .  A
C3230      C3231   1.405       .  A
C3230     Br3246   1.920       .  S
C3231      C3232   1.403       .  A
C3231      H3235   1.083       .  S
C3232      C3236   1.477       .  S
C3232      C3233   1.404       .  A
C3233      C3234   1.394       .  A
C3233     Br3245   1.920       .  S
C3234      H3237   1.084       .  S
C3236      C3238   1.402       .  A
C3236      C3242   1.406       .  A
C3238      C3239   1.403       .  A
C3238      H3243   1.083       .  S
C3239      C3240   1.416       .  A
C3239     Br3247   1.920       .  S
C3240      C3241   1.405       .  A
C3241      C3242   1.397       .  A
C3241      H3244   1.083       .  S
C3242     Br3248   1.919       .  S
C3249      C3250   1.417       .  A
C3249      C3254   1.408       .  A
C3250      C3251   1.401       .  A
C3250     Br3266   1.921       .  S
C3251      C3252   1.401       .  A
C3251      H3255   1.084       .  S
C3252      C3256   1.470       .  S
C3252      C3253   1.402       .  A
C3253      C3254   1.392       .  A
C3253     Br3265   1.919       .  S
C3254      H3257   1.083       .  S
C3256      C3258   1.398       .  A
C3256      C3262   1.404       .  A
C3258      C3259   1.393       .  A
C3258      H3263   1.084       .  S
C3259      C3260   1.415       .  A
C3259     Br3267   1.924       .  S
C3260      C3261   1.407       .  A
C3261      C3262   1.401       .  A
C3261      H3264   1.083       .  S
C3262     Br3268   1.917       .  S
C3269      C3270   1.414       .  A
C3269      C3274   1.408       .  A
C3270      C3271   1.398       .  A
C3270     Br3286   1.921       .  S
C3271      C3272   1.401       .  A
C3271      H3275   1.084       .  S
C3272      C3276   1.477       .  S
C3272      C3273   1.406       .  A
C3273      C3274   1.398       .  A
C3273     Br3285   1.918       .  S
C3274      H3277   1.083       .  S
C3276      C3278   1.400       .  A
C3276      C3282   1.406       .  A
C3278      C3279   1.400       .  A
C3278      H3283   1.084       .  S
C3279      C3280   1.418       .  A
C3279     Br3287   1.921       .  S
C3280      C3281   1.409       .  A
C3281      C3282   1.398       .  A
C3281      H3284   1.083       .  S
C3282     Br3288   1.920       .  S
C3289      C3290   1.415       .  A
C3289      C3294   1.406       .  A
C3290      C3291   1.402       .  A
C3290     Br3306   1.921       .  S
C3291      C3292   1.403       .  A
C3291      H3295   1.084       .  S
C3292      C3296   1.478       .  S
C3292      C3293   1.404       .  A
C3293      C3294   1.397       .  A
C3293     Br3305   1.918       .  S
C3294      H3297   1.084       .  S
C3296      C3298   1.400       .  A
C3296      C3302   1.407       .  A
C3298      C3299   1.395       .  A
C3298      H3303   1.084       .  S
C3299      C3300   1.413       .  A
C3299     Br3307   1.922       .  S
C3300      C3301   1.407       .  A
C3301      C3302   1.404       .  A
C3301      H3304   1.083       .  S
C3302     Br3308   1.917       .  S
C3309      C3310   1.412       .  A
C3309      C3314   1.405       .  A
C3310      C3311   1.396       .  A
C3310     Br3326   1.923       .  S
C3311      C3312   1.402       .  A
C3311      H3315   1.084       .  S
C3312      C3316   1.481       .  S
C3312      C3313   1.408       .  A
C3313      C3314   1.402       .  A
C3313     Br3325   1.918       .  S
C3314      H3317   1.083       .  S
C3316      C3318   1.402       .  A
C3316      C3322   1.407       .  A
C3318      C3319   1.401       .  A
C3318      H3323   1.083       .  S
C3319      C3320   1.417       .  A
C3319     Br3327   1.921       .  S
C3320      C3321   1.408       .  A
C3321      C3322   1.396       .  A
C3321      H3324   1.083       .  S
C3322     Br3328   1.921       .  S
C3329      C3330   1.415       .  A
C3329      C3334   1.408       .  A
C3330      C3331   1.398       .  A
C3330     Br3346   1.922       .  S
C3331      C3332   1.402       .  A
C3331      H3335   1.084       .  S
C3332      C3336   1.478       .  S
C3332      C3333   1.405       .  A
C3333      C3334   1.398       .  A
C3333     Br3345   1.919       .  S
C3334      H3337   1.083       .  S
C3336      C3338   1.401       .  A
C3336      C3342   1.407       .  A
C3338      C3339   1.396       .  A
C3338      H3343   1.084       .  S
C3339      C3340   1.414       .  A
C3339     Br3347   1.922       .  S
C3340      C3341   1.407       .  A
C3341      C3342   1.400       .  A
C3341      H3344   1.083       .  S
C3342     Br3348   1.918       .  S
C3349      C3350   1.417       .  A
C3349      C3354   1.407       .  A
C3350      C3351   1.402       .  A
C3350     Br3366   1.920       .  S
C3351      C3352   1.400       .  A
C3351      H3355   1.083       .  S
C3352      C3356   1.477       .  S
C3352      C3353   1.406       .  A
C3353      C3354   1.398       .  A
C3353     Br3365   1.920       .  S
C3354      H3357   1.083       .  S
C3356      C3358   1.400       .  A
C3356      C3362   1.404       .  A
C3358      C3359   1.400       .  A
C3358      H3363   1.084       .  S
C3359      C3360   1.417       .  A
C3359     Br3367   1.922       .  S
C3360      C3361   1.410       .  A
C3361      C3362   1.399       .  A
C3361      H3364   1.083       .  S
C3362     Br3368   1.918       .  S
C3369      C3370   1.413       .  A
C3369      C3374   1.404       .  A
C3370      C3371   1.405       .  A
C3370     Br3386   1.919       .  S
C3371      C3372   1.405       .  A
C3371      H3375   1.083       .  S
C3372      C3376   1.482       .  S
C3372      C3373   1.408       .  A
C3373      C3374   1.394       .  A
C3373     Br3385   1.921       .  S
C3374      H3377   1.084       .  S
C3376      C3378   1.402       .  A
C3376      C3382   1.410       .  A
C3378      C3379   1.400       .  A
C3378      H3383   1.084       .  S
C3379      C3380   1.413       .  A
C3379     Br3387   1.921       .  S
C3380      C3381   1.404       .  A
C3381      C3382   1.401       .  A
C3381      H3384   1.083       .  S
C3382     Br3388   1.919       .  S
C3389      C3390   1.416       .  A
C3389      C3394   1.407       .  A
C3390      C3391   1.404       .  A
C3390     Br3406   1.920       .  S
C3391      C3392   1.402       .  A
C3391      H3395   1.083   1_655  S
C3392      C3396   1.478   1_655  S
C3392      C3393   1.404       .  A
C3393      C3394   1.395       .  A
C3393     Br3405   1.919       .  S
C3394      H3397   1.083       .  S
C3396      C3398   1.402       .  A
C3396      C3402   1.404       .  A
C3398      C3399   1.402       .  A
C3398      H3403   1.084       .  S
C3399      C3400   1.415       .  A
C3399     Br3407   1.920       .  S
C3400      C3401   1.408       .  A
C3401      C3402   1.399       .  A
C3401      H3404   1.083       .  S
C3402     Br3408   1.918   1_455  S
C3409      C3410   1.419       .  A
C3409      C3414   1.407       .  A
C3410      C3411   1.400       .  A
C3410     Br3426   1.921       .  S
C3411      C3412   1.398       .  A
C3411      H3415   1.084       .  S
C3412      C3416   1.473       .  S
C3412      C3413   1.405       .  A
C3413      C3414   1.397       .  A
C3413     Br3425   1.920       .  S
C3414      H3417   1.083       .  S
C3416      C3418   1.401       .  A
C3416      C3422   1.404       .  A
C3418      C3419   1.399       .  A
C3418      H3423   1.084       .  S
C3419      C3420   1.414       .  A
C3419     Br3427   1.920       .  S
C3420      C3421   1.407       .  A
C3421      C3422   1.397       .  A
C3421      H3424   1.083       .  S
C3422     Br3428   1.918       .  S
C3429      C3430   1.419       .  A
C3429      C3434   1.407       .  A
C3430      C3431   1.402       .  A
C3430     Br3446   1.921       .  S
C3431      C3432   1.400       .  A
C3431      H3435   1.084       .  S
C3432      C3436   1.476       .  S
C3432      C3433   1.405       .  A
C3433      C3434   1.395       .  A
C3433     Br3445   1.920       .  S
C3434      H3437   1.083       .  S
C3436      C3438   1.401       .  A
C3436      C3442   1.405       .  A
C3438      C3439   1.400       .  A
C3438      H3443   1.084       .  S
C3439      C3440   1.416       .  A
C3439     Br3447   1.922       .  S
C3440      C3441   1.408       .  A
C3441      C3442   1.398       .  A
C3441      H3444   1.083       .  S
C3442     Br3448   1.918       .  S
C3449      C3450   1.412       .  A
C3449      C3454   1.406       .  A
C3450      C3451   1.397       .  A
C3450     Br3466   1.921       .  S
C3451      C3452   1.402       .  A
C3451      H3455   1.084       .  S
C3452      C3456   1.481       .  S
C3452      C3453   1.408       .  A
C3453      C3454   1.402       .  A
C3453     Br3465   1.918       .  S
C3454      H3457   1.083       .  S
C3456      C3458   1.403       .  A
C3456      C3462   1.406       .  A
C3458      C3459   1.401       .  A
C3458      H3463   1.084       .  S
C3459      C3460   1.417       .  A
C3459     Br3467   1.922       .  S
C3460      C3461   1.408       .  A
C3461      C3462   1.396       .  A
C3461      H3464   1.083       .  S
C3462     Br3468   1.919       .  S
C3469      C3470   1.416       .  A
C3469      C3474   1.407       .  A
C3470      C3471   1.401       .  A
C3470     Br3486   1.920       .  S
C3471      C3472   1.403       .  A
C3471      H3475   1.083       .  S
C3472      C3476   1.486       .  S
C3472      C3473   1.409       .  A
C3473      C3474   1.399       .  A
C3473     Br3485   1.921       .  S
C3474      H3477   1.083       .  S
C3476      C3478   1.403       .  A
C3476      C3482   1.411       .  A
C3478      C3479   1.396       .  A
C3478      H3483   1.084       .  S
C3479      C3480   1.411       .  A
C3479     Br3487   1.921       .  S
C3480      C3481   1.406       .  A
C3481      C3482   1.403       .  A
C3481      H3484   1.083       .  S
C3482     Br3488   1.919       .  S
C3489      C3490   1.418       .  A
C3489      C3494   1.407       .  A
C3490      C3491   1.402       .  A
C3490     Br3506   1.921       .  S
C3491      C3492   1.400       .  A
C3491      H3495   1.084       .  S
C3492      C3496   1.478       .  S
C3492      C3493   1.406       .  A
C3493      C3494   1.398       .  A
C3493     Br3505   1.919       .  S
C3494      H3497   1.083       .  S
C3496      C3498   1.400       .  A
C3496      C3502   1.405       .  A
C3498      C3499   1.399       .  A
C3498      H3503   1.084       .  S
C3499      C3500   1.415       .  A
C3499     Br3507   1.921       .  S
C3500      C3501   1.409       .  A
C3501      C3502   1.401       .  A
C3501      H3504   1.083       .  S
C3502     Br3508   1.917       .  S
C3509      C3510   1.419       .  A
C3509      C3514   1.409   1_655  A
C3510      C3511   1.400       .  A
C3510     Br3526   1.922       .  S
C3511      C3512   1.400   1_655  A
C3511      H3515   1.084       .  S
C3512      C3516   1.483   1_554  S
C3512      C3513   1.408       .  A
C3513      C3514   1.401       .  A
C3513     Br3525   1.920       .  S
C3514      H3517   1.083       .  S
C3516      C3518   1.402       .  A
C3516      C3522   1.407       .  A
C3518      C3519   1.399       .  A
C3518      H3523   1.084   1_455  S
C3519      C3520   1.414       .  A
C3519     Br3527   1.920       .  S
C3520      C3521   1.409       .  A
C3521      C3522   1.403       .  A
C3521      H3524   1.083       .  S
C3522     Br3528   1.919   1_556  S
C3529      C3530   1.417       .  A
C3529      C3534   1.405       .  A
C3530      C3531   1.403       .  A
C3530     Br3546   1.922       .  S
C3531      C3532   1.404       .  A
C3531      H3535   1.083       .  S
C3532      C3536   1.484       .  S
C3532      C3533   1.409       .  A
C3533      C3534   1.395       .  A
C3533     Br3545   1.921       .  S
C3534      H3537   1.084       .  S
C3536      C3538   1.401       .  A
C3536      C3542   1.409       .  A
C3538      C3539   1.399       .  A
C3538      H3543   1.084       .  S
C3539      C3540   1.418       .  A
C3539     Br3547   1.921       .  S
C3540      C3541   1.409       .  A
C3541      C3542   1.400       .  A
C3541      H3544   1.083       .  S
C3542     Br3548   1.921       .  S
C3549      C3550   1.411       .  A
C3549      C3554   1.405       .  A
C3550      C3551   1.396       .  A
C3550     Br3566   1.921       .  S
C3551      C3552   1.403       .  A
C3551      H3555   1.084       .  S
C3552      C3556   1.480       .  S
C3552      C3553   1.408       .  A
C3553      C3554   1.397       .  A
C3553     Br3565   1.919       .  S
C3554      H3557   1.084       .  S
C3556      C3558   1.403       .  A
C3556      C3562   1.407       .  A
C3558      C3559   1.396       .  A
C3558      H3563   1.084       .  S
C3559      C3560   1.414       .  A
C3559     Br3567   1.922       .  S
C3560      C3561   1.407       .  A
C3561      C3562   1.399       .  A
C3561      H3564   1.083       .  S
C3562     Br3568   1.919       .  S
C3569      C3570   1.418       .  A
C3569      C3574   1.407       .  A
C3570      C3571   1.400       .  A
C3570     Br3586   1.921       .  S
C3571      C3572   1.400       .  A
C3571      H3575   1.084       .  S
C3572      C3576   1.480       .  S
C3572      C3573   1.408       .  A
C3573      C3574   1.399       .  A
C3573     Br3585   1.919       .  S
C3574      H3577   1.083       .  S
C3576      C3578   1.401       .  A
C3576      C3582   1.405       .  A
C3578      C3579   1.399       .  A
C3578      H3583   1.084       .  S
C3579      C3580   1.416       .  A
C3579     Br3587   1.921       .  S
C3580      C3581   1.410       .  A
C3581      C3582   1.401       .  A
C3581      H3584   1.083       .  S
C3582     Br3588   1.918       .  S
C3589      C3590   1.413       .  A
C3589      C3594   1.407       .  A
C3590      C3591   1.395       .  A
C3590     Br3606   1.922       .  S
C3591      C3592   1.399       .  A
C3591      H3595   1.084       .  S
C3592      C3596   1.475       .  S
C3592      C3593   1.407       .  A
C3593      C3594   1.402       .  A
C3593     Br3605   1.918       .  S
C3594      H3597   1.083       .  S
C3596      C3598   1.405       .  A
C3596      C3602   1.405       .  A
C3598      C3599   1.405       .  A
C3598      H3603   1.083       .  S
C3599      C3600   1.412       .  A
C3599     Br3607   1.918       .  S
C3600      C3601   1.405       .  A
C3601      C3602   1.391       .  A
C3601      H3604   1.084       .  S
C3602     Br3608   1.921       .  S
C3609      C3610   1.415       .  A
C3609      C3614   1.408       .  A
C3610      C3611   1.398       .  A
C3610     Br3626   1.921       .  S
C3611      C3612   1.400       .  A
C3611      H3615   1.084       .  S
C3612      C3616   1.474       .  S
C3612      C3613   1.405       .  A
C3613      C3614   1.399       .  A
C3613     Br3625   1.918       .  S
C3614      H3617   1.083       .  S
C3616      C3618   1.400       .  A
C3616      C3622   1.405       .  A
C3618      C3619   1.400       .  A
C3618      H3623   1.084       .  S
C3619      C3620   1.418       .  A
C3619     Br3627   1.921       .  S
C3620      C3621   1.408       .  A
C3621      C3622   1.397       .  A
C3621      H3624   1.083       .  S
C3622     Br3628   1.920       .  S
C3629      C3630   1.417       .  A
C3629      C3634   1.406       .  A
C3630      C3631   1.398       .  A
C3630     Br3646   1.922       .  S
C3631      C3632   1.399       .  A
C3631      H3635   1.084       .  S
C3632      C3636   1.476       .  S
C3632      C3633   1.407       .  A
C3633      C3634   1.399       .  A
C3633     Br3645   1.919       .  S
C3634      H3637   1.083       .  S
C3636      C3638   1.401       .  A
C3636      C3642   1.406       .  A
C3638      C3639   1.403       .  A
C3638      H3643   1.083       .  S
C3639      C3640   1.417       .  A
C3639     Br3647   1.919       .  S
C3640      C3641   1.406       .  A
C3641      C3642   1.394       .  A
C3641      H3644   1.084       .  S
C3642     Br3648   1.921       .  S
C3649      C3650   1.416       .  A
C3649      C3654   1.406   1_545  A
C3650      C3651   1.401       .  A
C3650     Br3666   1.920       .  S
C3651      C3652   1.400   1_545  A
C3651      H3655   1.084       .  S
C3652      C3656   1.478       .  S
C3652      C3653   1.407       .  A
C3653      C3654   1.398       .  A
C3653     Br3665   1.920       .  S
C3654      H3657   1.083       .  S
C3656      C3658   1.401       .  A
C3656      C3662   1.405       .  A
C3658      C3659   1.400       .  A
C3658      H3663   1.084   1_565  S
C3659      C3660   1.415       .  A
C3659     Br3667   1.920   1_565  S
C3660      C3661   1.409       .  A
C3661      C3662   1.399       .  A
C3661      H3664   1.083       .  S
C3662     Br3668   1.919       .  S
C3669      C3670   1.418       .  A
C3669      C3674   1.408       .  A
C3670      C3671   1.402       .  A
C3670     Br3686   1.921       .  S
C3671      C3672   1.401       .  A
C3671      H3675   1.084       .  S
C3672      C3676   1.477       .  S
C3672      C3673   1.405       .  A
C3673      C3674   1.396       .  A
C3673     Br3685   1.920       .  S
C3674      H3677   1.083       .  S
C3676      C3678   1.401       .  A
C3676      C3682   1.405       .  A
C3678      C3679   1.400       .  A
C3678      H3683   1.084       .  S
C3679      C3680   1.416       .  A
C3679     Br3687   1.921       .  S
C3680      C3681   1.409       .  A
C3681      C3682   1.398       .  A
C3681      H3684   1.083       .  S
C3682     Br3688   1.920       .  S
C3689      C3690   1.418       .  A
C3689      C3694   1.410       .  A
C3690      C3691   1.401       .  A
C3690     Br3706   1.922       .  S
C3691      C3692   1.401       .  A
C3691      H3695   1.084       .  S
C3692      C3696   1.480       .  S
C3692      C3693   1.404       .  A
C3693      C3694   1.401       .  A
C3693     Br3705   1.917       .  S
C3694      H3697   1.083       .  S
C3696      C3698   1.402       .  A
C3696      C3702   1.406       .  A
C3698      C3699   1.406       .  A
C3698      H3703   1.083       .  S
C3699      C3700   1.417       .  A
C3699     Br3707   1.919       .  S
C3700      C3701   1.406       .  A
C3701      C3702   1.396       .  A
C3701      H3704   1.083       .  S
C3702     Br3708   1.920       .  S
C3709      C3710   1.417       .  A
C3709      C3714   1.408       .  A
C3710      C3711   1.401       .  A
C3710     Br3726   1.921       .  S
C3711      C3712   1.401       .  A
C3711      H3715   1.084       .  S
C3712      C3716   1.479       .  S
C3712      C3713   1.405       .  A
C3713      C3714   1.399       .  A
C3713     Br3725   1.919       .  S
C3714      H3717   1.083       .  S
C3716      C3718   1.401       .  A
C3716      C3722   1.406       .  A
C3718      C3719   1.403       .  A
C3718      H3723   1.084       .  S
C3719      C3720   1.418       .  A
C3719     Br3727   1.921       .  S
C3720      C3721   1.407       .  A
C3721      C3722   1.397       .  A
C3721      H3724   1.083       .  S
C3722     Br3728   1.920       .  S
C3729      C3730   1.411       .  A
C3729      C3734   1.402       .  A
C3730      C3731   1.398       .  A
C3730     Br3746   1.922       .  S
C3731      C3732   1.402       .  A
C3731      H3735   1.084       .  S
C3732      C3736   1.477       .  S
C3732      C3733   1.409       .  A
C3733      C3734   1.399       .  A
C3733     Br3745   1.919       .  S
C3734      H3737   1.084       .  S
C3736      C3738   1.402       .  A
C3736      C3742   1.408       .  A
C3738      C3739   1.401       .  A
C3738      H3743   1.083       .  S
C3739      C3740   1.414       .  A
C3739     Br3747   1.920       .  S
C3740      C3741   1.403       .  A
C3741      C3742   1.395       .  A
C3741      H3744   1.084       .  S
C3742     Br3748   1.921       .  S
C3749      C3750   1.418       .  A
C3749      C3754   1.410       .  A
C3750      C3751   1.398       .  A
C3750     Br3766   1.921   1_556  S
C3751      C3752   1.400       .  A
C3751      H3755   1.084   1_556  S
C3752      C3756   1.477       .  S
C3752      C3753   1.405       .  A
C3753      C3754   1.399       .  A
C3753     Br3765   1.918       .  S
C3754      H3757   1.083       .  S
C3756      C3758   1.399   1_566  A
C3756      C3762   1.406   1_565  A
C3758      C3759   1.399       .  A
C3758      H3763   1.084   1_545  S
C3759      C3760   1.420       .  A
C3759     Br3767   1.923       .  S
C3760      C3761   1.407   1_554  A
C3761      C3762   1.398       .  A
C3761      H3764   1.083       .  S
C3762     Br3768   1.919       .  S
C3769      C3770   1.411       .  A
C3769      C3774   1.406       .  A
C3770      C3771   1.401       .  A
C3770     Br3786   1.919       .  S
C3771      C3772   1.404       .  A
C3771      H3775   1.084       .  S
C3772      C3776   1.480       .  S
C3772      C3773   1.408       .  A
C3773      C3774   1.396       .  A
C3773     Br3785   1.921       .  S
C3774      H3777   1.084       .  S
C3776      C3778   1.400       .  A
C3776      C3782   1.410       .  A
C3778      C3779   1.395       .  A
C3778      H3783   1.084       .  S
C3779      C3780   1.414       .  A
C3779     Br3787   1.924       .  S
C3780      C3781   1.405       .  A
C3781      C3782   1.403       .  A
C3781      H3784   1.083       .  S
C3782     Br3788   1.919       .  S
C3789      C3790   1.418       .  A
C3789      C3794   1.410       .  A
C3790      C3791   1.400       .  A
C3790     Br3806   1.921       .  S
C3791      C3792   1.400       .  A
C3791      H3795   1.084       .  S
C3792      C3796   1.478       .  S
C3792      C3793   1.404       .  A
C3793      C3794   1.400       .  A
C3793     Br3805   1.917       .  S
C3794      H3797   1.083       .  S
C3796      C3798   1.401       .  A
C3796      C3802   1.406       .  A
C3798      C3799   1.405       .  A
C3798      H3803   1.083       .  S
C3799      C3800   1.418       .  A
C3799     Br3807   1.920       .  S
C3800      C3801   1.406       .  A
C3801      C3802   1.396       .  A
C3801      H3804   1.083       .  S
C3802     Br3808   1.920       .  S
C3809      C3810   1.411       .  A
C3809      C3814   1.404       .  A
C3810      C3811   1.402       .  A
C3810     Br3826   1.918       .  S
C3811      C3812   1.403       .  A
C3811      H3815   1.083       .  S
C3812      C3816   1.474       .  S
C3812      C3813   1.406       .  A
C3813      C3814   1.393       .  A
C3813     Br3825   1.920       .  S
C3814      H3817   1.084       .  S
C3816      C3818   1.398       .  A
C3816      C3822   1.406       .  A
C3818      C3819   1.397       .  A
C3818      H3823   1.084       .  S
C3819      C3820   1.417       .  A
C3819     Br3827   1.923       .  S
C3820      C3821   1.406       .  A
C3821      C3822   1.400       .  A
C3821      H3824   1.083       .  S
C3822     Br3828   1.918       .  S
C3829      C3830   1.411       .  A
C3829      C3834   1.405       .  A
C3830      C3831   1.401       .  A
C3830     Br3846   1.919       .  S
C3831      C3832   1.406       .  A
C3831      H3835   1.084       .  S
C3832      C3836   1.485       .  S
C3832      C3833   1.411       .  A
C3833      C3834   1.397       .  A
C3833     Br3845   1.922       .  S
C3834      H3837   1.084       .  S
C3836      C3838   1.401       .  A
C3836      C3842   1.413       .  A
C3838      C3839   1.393       .  A
C3838      H3843   1.084       .  S
C3839      C3840   1.411       .  A
C3839     Br3847   1.923       .  S
C3840      C3841   1.405       .  A
C3841      C3842   1.405       .  A
C3841      H3844   1.083       .  S
C3842     Br3848   1.919       .  S
C3849      C3850   1.416       .  A
C3849      C3854   1.407       .  A
C3850      C3851   1.404       .  A
C3850     Br3866   1.920       .  S
C3851      C3852   1.401       .  A
C3851      H3855   1.083       .  S
C3852      C3856   1.482       .  S
C3852      C3853   1.407       .  A
C3853      C3854   1.399       .  A
C3853     Br3865   1.919       .  S
C3854      H3857   1.083       .  S
C3856      C3858   1.400       .  A
C3856      C3862   1.405       .  A
C3858      C3859   1.401       .  A
C3858      H3863   1.084       .  S
C3859      C3860   1.418       .  A
C3859     Br3867   1.920       .  S
C3860      C3861   1.411       .  A
C3861      C3862   1.403       .  A
C3861      H3864   1.083       .  S
C3862     Br3868   1.918       .  S
C3869      C3870   1.411       .  A
C3869      C3874   1.405       .  A
C3870      C3871   1.394       .  A
C3870     Br3886   1.923       .  S
C3871      C3872   1.400       .  A
C3871      H3875   1.084       .  S
C3872      C3876   1.474       .  S
C3872      C3873   1.407       .  A
C3873      C3874   1.402       .  A
C3873     Br3885   1.917       .  S
C3874      H3877   1.083       .  S
C3876      C3878   1.400       .  A
C3876      C3882   1.405       .  A
C3878      C3879   1.396       .  A
C3878      H3883   1.084       .  S
C3879      C3880   1.412       .  A
C3879     Br3887   1.921       .  S
C3880      C3881   1.407       .  A
C3881      C3882   1.400       .  A
C3881      H3884   1.083       .  S
C3882     Br3888   1.918       .  S
C3889      C3890   1.415       .  A
C3889      C3894   1.408       .  A
C3890      C3891   1.402       .  A
C3890     Br3906   1.919       .  S
C3891      C3892   1.401       .  A
C3891      H3895   1.083       .  S
C3892      C3896   1.480       .  S
C3892      C3893   1.407       .  A
C3893      C3894   1.400       .  A
C3893     Br3905   1.921       .  S
C3894      H3897   1.083       .  S
C3896      C3898   1.403       .  A
C3896      C3902   1.406       .  A
C3898      C3899   1.400       .  A
C3898      H3903   1.084       .  S
C3899      C3900   1.412       .  A
C3899     Br3907   1.919       .  S
C3900      C3901   1.408       .  A
C3901      C3902   1.399       .  A
C3901      H3904   1.083       .  S
C3902     Br3908   1.918       .  S
C3909      C3910   1.413       .  A
C3909      C3914   1.406       .  A
C3910      C3911   1.403       .  A
C3910     Br3926   1.920       .  S
C3911      C3912   1.407       .  A
C3911      H3915   1.084       .  S
C3912      C3916   1.483       .  S
C3912      C3913   1.409       .  A
C3913      C3914   1.395       .  A
C3913     Br3925   1.921       .  S
C3914      H3917   1.084       .  S
C3916      C3918   1.399       .  A
C3916      C3922   1.410       .  A
C3918      C3919   1.394       .  A
C3918      H3923   1.084       .  S
C3919      C3920   1.416       .  A
C3919     Br3927   1.923       .  S
C3920      C3921   1.409       .  A
C3921      C3922   1.405       .  A
C3921      H3924   1.083       .  S
C3922     Br3928   1.920       .  S
C3929      C3930   1.419   1_655  A
C3929      C3934   1.410       .  A
C3930      C3931   1.400       .  A
C3930     Br3946   1.922       .  S
C3931      C3932   1.400       .  A
C3931      H3935   1.084       .  S
C3932      C3936   1.482       .  S
C3932      C3933   1.406       .  A
C3933      C3934   1.401   1_455  A
C3933     Br3945   1.919   1_455  S
C3934      H3937   1.083       .  S
C3936      C3938   1.402       .  A
C3936      C3942   1.409       .  A
C3938      C3939   1.402       .  A
C3938      H3943   1.084       .  S
C3939      C3940   1.417       .  A
C3939     Br3947   1.922       .  S
C3940      C3941   1.404       .  A
C3941      C3942   1.399       .  A
C3941      H3944   1.083       .  S
C3942     Br3948   1.920   1_455  S
C3949      C3950   1.418       .  A
C3949      C3954   1.408       .  A
C3950      C3951   1.398       .  A
C3950     Br3966   1.922       .  S
C3951      C3952   1.399       .  A
C3951      H3955   1.084       .  S
C3952      C3956   1.476       .  S
C3952      C3953   1.405       .  A
C3953      C3954   1.399       .  A
C3953     Br3965   1.917       .  S
C3954      H3957   1.083       .  S
C3956      C3958   1.399       .  A
C3956      C3962   1.405       .  A
C3958      C3959   1.401       .  A
C3958      H3963   1.084       .  S
C3959      C3960   1.419       .  A
C3959     Br3967   1.921       .  S
C3960      C3961   1.408       .  A
C3961      C3962   1.398       .  A
C3961      H3964   1.083       .  S
C3962     Br3968   1.919       .  S
C3969      C3970   1.414       .  A
C3969      C3974   1.406       .  A
C3970      C3971   1.404       .  A
C3970     Br3986   1.919       .  S
C3971      C3972   1.402       .  A
C3971      H3975   1.083       .  S
C3972      C3976   1.478       .  S
C3972      C3973   1.406       .  A
C3973      C3974   1.397       .  A
C3973     Br3985   1.920       .  S
C3974      H3977   1.083       .  S
C3976      C3978   1.400       .  A
C3976      C3982   1.404       .  A
C3978      C3979   1.400       .  A
C3978      H3983   1.084       .  S
C3979      C3980   1.417       .  A
C3979     Br3987   1.921       .  S
C3980      C3981   1.411       .  A
C3981      C3982   1.401       .  A
C3981      H3984   1.083       .  S
C3982     Br3988   1.918       .  S
C3989      C3990   1.416       .  A
C3989      C3994   1.406   1_545  A
C3990      C3991   1.404   1_545  A
C3990     Br4006   1.920       .  S
C3991      C3992   1.403       .  A
C3991      H3995   1.083       .  S
C3992      C3996   1.481   1_455  S
C3992      C3993   1.407       .  A
C3993      C3994   1.395       .  A
C3993     Br4005   1.921       .  S
C3994      H3997   1.083       .  S
C3996      C3998   1.402       .  A
C3996      C4002   1.406       .  A
C3998      C3999   1.399       .  A
C3998      H4003   1.084       .  S
C3999      C4000   1.418       .  A
C3999     Br4007   1.922       .  S
C4000      C4001   1.409       .  A
C4001      C4002   1.400       .  A
C4001      H4004   1.083       .  S
C4002     Br4008   1.918   1_655  S
C4009      C4010   1.414       .  A
C4009      C4014   1.405       .  A
C4010      C4011   1.399       .  A
C4010     Br4026   1.921       .  S
C4011      C4012   1.400       .  A
C4011      H4015   1.083       .  S
C4012      C4016   1.475       .  S
C4012      C4013   1.407       .  A
C4013      C4014   1.398       .  A
C4013     Br4025   1.919       .  S
C4014      H4017   1.083       .  S
C4016      C4018   1.401       .  A
C4016      C4022   1.405       .  A
C4018      C4019   1.405       .  A
C4018      H4023   1.083       .  S
C4019      C4020   1.418       .  A
C4019     Br4027   1.919       .  S
C4020      C4021   1.407       .  A
C4021      C4022   1.391       .  A
C4021      H4024   1.083       .  S
C4022     Br4028   1.922       .  S
C4029      C4030   1.419       .  A
C4029      C4034   1.409       .  A
C4030      C4031   1.400       .  A
C4030     Br4046   1.922       .  S
C4031      C4032   1.398       .  A
C4031      H4035   1.084       .  S
C4032      C4036   1.476       .  S
C4032      C4033   1.406       .  A
C4033      C4034   1.399       .  A
C4033     Br4045   1.920       .  S
C4034      H4037   1.083       .  S
C4036      C4038   1.400       .  A
C4036      C4042   1.403       .  A
C4038      C4039   1.401       .  A
C4038      H4043   1.084       .  S
C4039      C4040   1.419       .  A
C4039     Br4047   1.922       .  S
C4040      C4041   1.409       .  A
C4041      C4042   1.398       .  A
C4041      H4044   1.083       .  S
C4042     Br4048   1.918       .  S
C4049      C4050   1.415       .  A
C4049      C4054   1.403       .  A
C4050      C4051   1.403       .  A
C4050     Br4066   1.919       .  S
C4051      C4052   1.401       .  A
C4051      H4055   1.083       .  S
C4052      C4056   1.475       .  S
C4052      C4053   1.406       .  A
C4053      C4054   1.392       .  A
C4053     Br4065   1.916       .  S
C4054      H4057   1.084       .  S
C4056      C4058   1.401       .  A
C4056      C4062   1.407       .  A
C4058      C4059   1.402       .  A
C4058      H4063   1.083       .  S
C4059      C4060   1.413       .  A
C4059     Br4067   1.920       .  S
C4060      C4061   1.403       .  A
C4061      C4062   1.396       .  A
C4061      H4064   1.084       .  S
C4062     Br4068   1.919       .  S
C4069      C4070   1.416       .  A
C4069      C4074   1.405       .  A
C4070      C4071   1.401       .  A
C4070     Br4086   1.921       .  S
C4071      C4072   1.400       .  A
C4071      H4075   1.084       .  S
C4072      C4076   1.474       .  S
C4072      C4073   1.406       .  A
C4073      C4074   1.397       .  A
C4073     Br4085   1.919       .  S
C4074      H4077   1.083       .  S
C4076      C4078   1.401       .  A
C4076      C4082   1.405       .  A
C4078      C4079   1.404       .  A
C4078      H4083   1.083       .  S
C4079      C4080   1.418       .  A
C4079     Br4087   1.920       .  S
C4080      C4081   1.406       .  A
C4081      C4082   1.392       .  A
C4081      H4084   1.083       .  S
C4082     Br4088   1.922       .  S
C4089      C4090   1.417       .  A
C4089      C4094   1.409       .  A
C4090      C4091   1.401       .  A
C4090     Br4106   1.921       .  S
C4091      C4092   1.401       .  A
C4091      H4095   1.084       .  S
C4092      C4096   1.477       .  S
C4092      C4093   1.404       .  A
C4093      C4094   1.399       .  A
C4093     Br4105   1.918       .  S
C4094      H4097   1.083       .  S
C4096      C4098   1.400       .  A
C4096      C4102   1.407       .  A
C4098      C4099   1.395       .  A
C4098      H4103   1.084       .  S
C4099      C4100   1.411       .  A
C4099     Br4107   1.922       .  S
C4100      C4101   1.406       .  A
C4101      C4102   1.404       .  A
C4101      H4104   1.083       .  S
C4102     Br4108   1.917       .  S
C4109      C4110   1.418       .  A
C4109      C4114   1.409       .  A
C4110      C4111   1.399       .  A
C4110     Br4126   1.922       .  S
C4111      C4112   1.400       .  A
C4111      H4115   1.084       .  S
C4112      C4116   1.473       .  S
C4112      C4113   1.402       .  A
C4113      C4114   1.396       .  A
C4113     Br4125   1.917       .  S
C4114      H4117   1.083       .  S
C4116      C4118   1.399       .  A
C4116      C4122   1.404       .  A
C4118      C4119   1.401       .  A
C4118      H4123   1.084       .  S
C4119      C4120   1.418       .  A
C4119     Br4127   1.920       .  S
C4120      C4121   1.408       .  A
C4121      C4122   1.397       .  A
C4121      H4124   1.083       .  S
C4122     Br4128   1.920       .  S
C4129      C4130   1.417       .  A
C4129      C4134   1.409       .  A
C4130      C4131   1.401       .  A
C4130     Br4146   1.920       .  S
C4131      C4132   1.402       .  A
C4131      H4135   1.084       .  S
C4132      C4136   1.478       .  S
C4132      C4133   1.405       .  A
C4133      C4134   1.396       .  A
C4133     Br4145   1.921       .  S
C4134      H4137   1.083       .  S
C4136      C4138   1.400       .  A
C4136      C4142   1.409       .  A
C4138      C4139   1.394       .  A
C4138      H4143   1.084       .  S
C4139      C4140   1.411       .  A
C4139     Br4147   1.920       .  S
C4140      C4141   1.405       .  A
C4141      C4142   1.402       .  A
C4141      H4144   1.083       .  S
C4142     Br4148   1.918       .  S
C4149      C4150   1.419       .  A
C4149      C4154   1.410       .  A
C4150      C4151   1.399       .  A
C4150     Br4166   1.923       .  S
C4151      C4152   1.399       .  A
C4151      H4155   1.084       .  S
C4152      C4156   1.480       .  S
C4152      C4153   1.405       .  A
C4153      C4154   1.402       .  A
C4153     Br4165   1.917       .  S
C4154      H4157   1.083       .  S
C4156      C4158   1.398       .  A
C4156      C4162   1.406       .  A
C4158      C4159   1.401       .  A
C4158      H4163   1.084       .  S
C4159      C4160   1.421       .  A
C4159     Br4167   1.922       .  S
C4160      C4161   1.409       .  A
C4161      C4162   1.402       .  A
C4161      H4164   1.083       .  S
C4162     Br4168   1.919       .  S
C4169      C4170   1.418       .  A
C4169      C4174   1.407       .  A
C4170      C4171   1.397       .  A
C4170     Br4186   1.924       .  S
C4171      C4172   1.402       .  A
C4171      H4175   1.084       .  S
C4172      C4176   1.481       .  S
C4172      C4173   1.408       .  A
C4173      C4174   1.399       .  A
C4173     Br4185   1.919       .  S
C4174      H4177   1.083       .  S
C4176      C4178   1.403       .  A
C4176      C4182   1.408       .  A
C4178      C4179   1.397       .  A
C4178      H4183   1.084       .  S
C4179      C4180   1.413       .  A
C4179     Br4187   1.922       .  S
C4180      C4181   1.407       .  A
C4181      C4182   1.397       .  A
C4181      H4184   1.083       .  S
C4182     Br4188   1.920       .  S
C4189      C4190   1.418       .  A
C4189      C4194   1.408       .  A
C4190      C4191   1.401       .  A
C4190     Br4206   1.922       .  S
C4191      C4192   1.402       .  A
C4191      H4195   1.084       .  S
C4192      C4196   1.485       .  S
C4192      C4193   1.408       .  A
C4193      C4194   1.401       .  A
C4193     Br4205   1.920       .  S
C4194      H4197   1.083       .  S
C4196      C4198   1.405   1_556  A
C4196      C4202   1.409   1_556  A
C4198      C4199   1.403       .  A
C4198      H4203   1.083   1_554  S
C4199      C4200   1.414       .  A
C4199     Br4207   1.919       .  S
C4200      C4201   1.404       .  A
C4201      C4202   1.396       .  A
C4201      H4204   1.084       .  S
C4202     Br4208   1.920   1_554  S
C4209      C4210   1.415       .  A
C4209      C4214   1.408       .  A
C4210      C4211   1.400       .  A
C4210     Br4226   1.919       .  S
C4211      C4212   1.400       .  A
C4211      H4215   1.084       .  S
C4212      C4216   1.476       .  S
C4212      C4213   1.405       .  A
C4213      C4214   1.397       .  A
C4213     Br4225   1.920       .  S
C4214      H4217   1.083       .  S
C4216      C4218   1.400       .  A
C4216      C4222   1.404       .  A
C4218      C4219   1.398       .  A
C4218      H4223   1.084       .  S
C4219      C4220   1.417       .  A
C4219     Br4227   1.921       .  S
C4220      C4221   1.409       .  A
C4221      C4222   1.400       .  A
C4221      H4224   1.083       .  S
C4222     Br4228   1.918       .  S
C4229      C4230   1.415       .  A
C4229      C4234   1.409       .  A
C4230      C4231   1.401       .  A
C4230     Br4246   1.920       .  S
C4231      C4232   1.402       .  A
C4231      H4235   1.084       .  S
C4232      C4236   1.480       .  S
C4232      C4233   1.405       .  A
C4233      C4234   1.399       .  A
C4233     Br4245   1.919       .  S
C4234      H4237   1.083       .  S
C4236      C4238   1.401       .  A
C4236      C4242   1.407       .  A
C4238      C4239   1.402       .  A
C4238      H4243   1.084       .  S
C4239      C4240   1.417       .  A
C4239     Br4247   1.921       .  S
C4240      C4241   1.407       .  A
C4241      C4242   1.399       .  A
C4241      H4244   1.083       .  S
C4242     Br4248   1.920       .  S
C4249      C4250   1.417       .  A
C4249      C4254   1.409       .  A
C4250      C4251   1.400       .  A
C4250     Br4266   1.919       .  S
C4251      C4252   1.399       .  A
C4251      H4255   1.084       .  S
C4252      C4256   1.474       .  S
C4252      C4253   1.404       .  A
C4253      C4254   1.398       .  A
C4253     Br4265   1.919       .  S
C4254      H4257   1.083       .  S
C4256      C4258   1.400       .  A
C4256      C4262   1.403       .  A
C4258      C4259   1.398       .  A
C4258      H4263   1.084       .  S
C4259      C4260   1.416       .  A
C4259     Br4267   1.922       .  S
C4260      C4261   1.409       .  A
C4261      C4262   1.398       .  A
C4261      H4264   1.083       .  S
C4262     Br4268   1.918       .  S
C4269      C4270   1.414       .  A
C4269      C4274   1.405       .  A
C4270      C4271   1.404       .  A
C4270     Br4286   1.919       .  S
C4271      C4272   1.402       .  A
C4271      H4275   1.083       .  S
C4272      C4276   1.476       .  S
C4272      C4273   1.406       .  A
C4273      C4274   1.394       .  A
C4273     Br4285   1.920       .  S
C4274      H4277   1.084       .  S
C4276      C4278   1.399       .  A
C4276      C4282   1.406       .  A
C4278      C4279   1.400       .  A
C4278      H4283   1.084       .  S
C4279      C4280   1.417       .  A
C4279     Br4287   1.921       .  S
C4280      C4281   1.406       .  A
C4281      C4282   1.399       .  A
C4281      H4284   1.083       .  S
C4282     Br4288   1.918       .  S
C4289      C4290   1.419       .  A
C4289      C4294   1.411       .  A
C4290      C4291   1.400       .  A
C4290     Br4306   1.922       .  S
C4291      C4292   1.400       .  A
C4291      H4295   1.084   1_565  S
C4292      C4296   1.481       .  S
C4292      C4293   1.405       .  A
C4293      C4294   1.402       .  A
C4293     Br4305   1.918       .  S
C4294      H4297   1.083       .  S
C4296      C4298   1.400   1_565  A
C4296      C4302   1.406       .  A
C4298      C4299   1.403       .  A
C4298      H4303   1.084       .  S
C4299      C4300   1.419       .  A
C4299     Br4307   1.921       .  S
C4300      C4301   1.409   1_545  A
C4301      C4302   1.400       .  A
C4301      H4304   1.083       .  S
C4302     Br4308   1.919       .  S
C4309      C4310   1.408       .  A
C4309      C4314   1.404       .  A
C4310      C4311   1.395       .  A
C4310     Br4326   1.922       .  S
C4311      C4312   1.403       .  A
C4311      H4315   1.084       .  S
C4312      C4316   1.482       .  S
C4312      C4313   1.410       .  A
C4313      C4314   1.403       .  A
C4313     Br4325   1.918       .  S
C4314      H4317   1.083       .  S
C4316      C4318   1.405       .  A
C4316      C4322   1.406       .  A
C4318      C4319   1.403       .  A
C4318      H4323   1.083       .  S
C4319      C4320   1.414       .  A
C4319     Br4327   1.920       .  S
C4320      C4321   1.406       .  A
C4321      C4322   1.395       .  A
C4321      H4324   1.084       .  S
C4322     Br4328   1.919       .  S
C4329      C4330   1.419       .  A
C4329      C4334   1.411       .  A
C4330      C4331   1.400       .  A
C4330     Br4346   1.922       .  S
C4331      C4332   1.400       .  A
C4331      H4335   1.084       .  S
C4332      C4336   1.481       .  S
C4332      C4333   1.404       .  A
C4333      C4334   1.402       .  A
C4333     Br4345   1.917       .  S
C4334      H4337   1.083       .  S
C4336      C4338   1.400       .  A
C4336      C4342   1.406       .  A
C4338      C4339   1.403       .  A
C4338      H4343   1.083       .  S
C4339      C4340   1.418       .  A
C4339     Br4347   1.921       .  S
C4340      C4341   1.407       .  A
C4341      C4342   1.400       .  A
C4341      H4344   1.083       .  S
C4342     Br4348   1.919       .  S
C4349      C4350   1.415       .  A
C4349      C4354   1.409       .  A
C4350      C4351   1.402       .  A
C4350     Br4366   1.919       .  S
C4351      C4352   1.402       .  A
C4351      H4355   1.084       .  S
C4352      C4356   1.482       .  S
C4352      C4353   1.406       .  A
C4353      C4354   1.402       .  A
C4353     Br4365   1.918       .  S
C4354      H4357   1.083       .  S
C4356      C4358   1.402       .  A
C4356      C4362   1.406       .  A
C4358      C4359   1.405       .  A
C4358      H4363   1.083       .  S
C4359      C4360   1.417       .  A
C4359     Br4367   1.920       .  S
C4360      C4361   1.408       .  A
C4361      C4362   1.398       .  A
C4361      H4364   1.083       .  S
C4362     Br4368   1.920       .  S
C4369      C4370   1.413       .  A
C4369      C4374   1.403       .  A
C4370      C4371   1.402       .  A
C4370     Br4386   1.921       .  S
C4371      C4372   1.404       .  A
C4371      H4375   1.083       .  S
C4372      C4376   1.482       .  S
C4372      C4373   1.409       .  A
C4373      C4374   1.394       .  A
C4373     Br4385   1.921       .  S
C4374      H4377   1.084       .  S
C4376      C4378   1.401       .  A
C4376      C4382   1.410       .  A
C4378      C4379   1.398       .  A
C4378      H4383   1.084       .  S
C4379      C4380   1.415       .  A
C4379     Br4387   1.921       .  S
C4380      C4381   1.405       .  A
C4381      C4382   1.401       .  A
C4381      H4384   1.083       .  S
C4382     Br4388   1.920       .  S
C4389      C4390   1.414       .  A
C4389      C4394   1.404       .  A
C4390      C4391   1.397       .  A
C4390     Br4406   1.923       .  S
C4391      C4392   1.401       .  A
C4391      H4395   1.084       .  S
C4392      C4396   1.476       .  S
C4392      C4393   1.406       .  A
C4393      C4394   1.399       .  A
C4393     Br4405   1.917       .  S
C4394      H4397   1.083       .  S
C4396      C4398   1.401       .  A
C4396      C4402   1.405       .  A
C4398      C4399   1.397       .  A
C4398      H4403   1.084       .  S
C4399      C4400   1.414       .  A
C4399     Br4407   1.920       .  S
C4400      C4401   1.409       .  A
C4401      C4402   1.400       .  A
C4401      H4404   1.083       .  S
C4402     Br4408   1.918       .  S
C4409      C4410   1.418       .  A
C4409      C4414   1.408   1_554  A
C4410      C4411   1.402       .  A
C4410     Br4426   1.921       .  S
C4411      C4412   1.401   1_554  A
C4411      H4415   1.083       .  S
C4412      C4416   1.479       .  S
C4412      C4413   1.405       .  A
C4413      C4414   1.397       .  A
C4413     Br4425   1.919       .  S
C4414      H4417   1.083       .  S
C4416      C4418   1.399   1_565  A
C4416      C4422   1.404       .  A
C4418      C4419   1.399       .  A
C4418      H4423   1.084   1_556  S
C4419      C4420   1.420       .  A
C4419     Br4427   1.922       .  S
C4420      C4421   1.410       .  A
C4421      C4422   1.401   1_545  A
C4421      H4424   1.083       .  S
C4422     Br4428   1.918       .  S
C4429      C4430   1.413       .  A
C4429      C4434   1.404       .  A
C4430      C4431   1.400       .  A
C4430     Br4446   1.919       .  S
C4431      C4432   1.401       .  A
C4431      H4435   1.083       .  S
C4432      C4436   1.475       .  S
C4432      C4433   1.407       .  A
C4433      C4434   1.397       .  A
C4433     Br4445   1.920       .  S
C4434      H4437   1.084       .  S
C4436      C4438   1.402       .  A
C4436      C4442   1.406       .  A
C4438      C4439   1.401       .  A
C4438      H4443   1.084       .  S
C4439      C4440   1.413       .  A
C4439     Br4447   1.921       .  S
C4440      C4441   1.404       .  A
C4441      C4442   1.396       .  A
C4441      H4444   1.084       .  S
C4442     Br4448   1.919       .  S
C4449      C4450   1.416       .  A
C4449      C4454   1.409       .  A
C4450      C4451   1.405       .  A
C4450     Br4466   1.920       .  S
C4451      C4452   1.403       .  A
C4451      H4455   1.083       .  S
C4452      C4456   1.483       .  S
C4452      C4453   1.405       .  A
C4453      C4454   1.400       .  A
C4453     Br4465   1.918       .  S
C4454      H4457   1.083       .  S
C4456      C4458   1.404       .  A
C4456      C4462   1.405       .  A
C4458      C4459   1.408       .  A
C4458      H4463   1.083       .  S
C4459      C4460   1.417       .  A
C4459     Br4467   1.919       .  S
C4460      C4461   1.406       .  A
C4461      C4462   1.396       .  A
C4461      H4464   1.083       .  S
C4462     Br4468   1.919       .  S
C4469      C4470   1.414       .  A
C4469      C4474   1.408       .  A
C4470      C4471   1.398       .  A
C4470     Br4486   1.920       .  S
C4471      C4472   1.400       .  A
C4471      H4475   1.084       .  S
C4472      C4476   1.472       .  S
C4472      C4473   1.404       .  A
C4473      C4474   1.397       .  A
C4473     Br4485   1.919       .  S
C4474      H4477   1.083       .  S
C4476      C4478   1.398       .  A
C4476      C4482   1.406       .  A
C4478      C4479   1.392       .  A
C4478      H4483   1.084       .  S
C4479      C4480   1.414       .  A
C4479     Br4487   1.924       .  S
C4480      C4481   1.407       .  A
C4481      C4482   1.402       .  A
C4481      H4484   1.083       .  S
C4482     Br4488   1.917       .  S
C4489      C4490   1.417       .  A
C4489      C4494   1.407       .  A
C4490      C4491   1.407       .  A
C4490     Br4506   1.919       .  S
C4491      C4492   1.403       .  A
C4491      H4495   1.083       .  S
C4492      C4496   1.485       .  S
C4492      C4493   1.406       .  A
C4493      C4494   1.400       .  A
C4493     Br4505   1.920       .  S
C4494      H4497   1.083       .  S
C4496      C4498   1.403   1_565  A
C4496      C4502   1.407       .  A
C4498      C4499   1.403       .  A
C4498      H4503   1.083       .  S
C4499      C4500   1.415       .  A
C4499     Br4507   1.920       .  S
C4500      C4501   1.408       .  A
C4501      C4502   1.402   1_545  A
C4501      H4504   1.083       .  S
C4502     Br4508   1.918       .  S
C4509      C4510   1.414       .  A
C4509      C4514   1.409       .  A
C4510      C4511   1.399       .  A
C4510     Br4526   1.920       .  S
C4511      C4512   1.401       .  A
C4511      H4515   1.084       .  S
C4512      C4516   1.478       .  S
C4512      C4513   1.405       .  A
C4513      C4514   1.400       .  A
C4513     Br4525   1.919       .  S
C4514      H4517   1.083       .  S
C4516      C4518   1.400       .  A
C4516      C4522   1.406       .  A
C4518      C4519   1.401       .  A
C4518      H4523   1.084       .  S
C4519      C4520   1.418       .  A
C4519     Br4527   1.921       .  S
C4520      C4521   1.408       .  A
C4521      C4522   1.396       .  A
C4521      H4524   1.083       .  S
C4522     Br4528   1.920       .  S
C4529      C4530   1.418       .  A
C4529      C4534   1.410       .  A
C4530      C4531   1.403       .  A
C4530     Br4546   1.921       .  S
C4531      C4532   1.401       .  A
C4531      H4535   1.084       .  S
C4532      C4536   1.483       .  S
C4532      C4533   1.405       .  A
C4533      C4534   1.401       .  A
C4533     Br4545   1.917       .  S
C4534      H4537   1.083       .  S
C4536      C4538   1.402       .  A
C4536      C4542   1.406       .  A
C4538      C4539   1.405       .  A
C4538      H4543   1.083       .  S
C4539      C4540   1.416       .  A
C4539     Br4547   1.919       .  S
C4540      C4541   1.407       .  A
C4541      C4542   1.400       .  A
C4541      H4544   1.083       .  S
C4542     Br4548   1.919       .  S
C4549      C4550   1.418       .  A
C4549      C4554   1.408       .  A
C4550      C4551   1.404       .  A
C4550     Br4566   1.920       .  S
C4551      C4552   1.401       .  A
C4551      H4555   1.083       .  S
C4552      C4556   1.480       .  S
C4552      C4553   1.405       .  A
C4553      C4554   1.398       .  A
C4553     Br4565   1.920       .  S
C4554      H4557   1.083       .  S
C4556      C4558   1.402       .  A
C4556      C4562   1.405       .  A
C4558      C4559   1.402       .  A
C4558      H4563   1.084       .  S
C4559      C4560   1.414       .  A
C4559     Br4567   1.920       .  S
C4560      C4561   1.408       .  A
C4561      C4562   1.401       .  A
C4561      H4564   1.083       .  S
C4562     Br4568   1.918       .  S
C4569      C4570   1.414       .  A
C4569      C4574   1.406       .  A
C4570      C4571   1.394       .  A
C4570     Br4586   1.923       .  S
C4571      C4572   1.401       .  A
C4571      H4575   1.084       .  S
C4572      C4576   1.477       .  S
C4572      C4573   1.406       .  A
C4573      C4574   1.401       .  A
C4573     Br4585   1.916       .  S
C4574      H4577   1.083       .  S
C4576      C4578   1.402       .  A
C4576      C4582   1.404       .  A
C4578      C4579   1.401       .  A
C4578      H4583   1.084       .  S
C4579      C4580   1.417       .  A
C4579     Br4587   1.921       .  S
C4580      C4581   1.409       .  A
C4581      C4582   1.397       .  A
C4581      H4584   1.083       .  S
C4582     Br4588   1.919       .  S
C4589      C4590   1.415       .  A
C4589      C4594   1.409       .  A
C4590      C4591   1.400       .  A
C4590     Br4606   1.920   1_455  S
C4591      C4592   1.401       .  A
C4591      H4595   1.084   1_455  S
C4592      C4596   1.477       .  S
C4592      C4593   1.404       .  A
C4593      C4594   1.400       .  A
C4593     Br4605   1.918       .  S
C4594      H4597   1.083       .  S
C4596      C4598   1.401   1_455  A
C4596      C4602   1.405       .  A
C4598      C4599   1.404       .  A
C4598      H4603   1.083       .  S
C4599      C4600   1.417       .  A
C4599     Br4607   1.920       .  S
C4600      C4601   1.406   1_655  A
C4601      C4602   1.396       .  A
C4601      H4604   1.083       .  S
C4602     Br4608   1.919       .  S
C4609      C4610   1.415       .  A
C4609      C4614   1.406       .  A
C4610      C4611   1.402       .  A
C4610     Br4626   1.921       .  S
C4611      C4612   1.404       .  A
C4611      H4615   1.084       .  S
C4612      C4616   1.481       .  S
C4612      C4613   1.406       .  A
C4613      C4614   1.397       .  A
C4613     Br4625   1.919       .  S
C4614      H4617   1.083       .  S
C4616      C4618   1.402       .  A
C4616      C4622   1.409       .  A
C4618      C4619   1.396       .  A
C4618      H4623   1.084       .  S
C4619      C4620   1.412       .  A
C4619     Br4627   1.922       .  S
C4620      C4621   1.405       .  A
C4621      C4622   1.402       .  A
C4621      H4624   1.083       .  S
C4622     Br4628   1.918       .  S
C4629      C4630   1.417       .  A
C4629      C4634   1.411       .  A
C4630      C4631   1.400       .  A
C4630     Br4646   1.921       .  S
C4631      C4632   1.400       .  A
C4631      H4635   1.084       .  S
C4632      C4636   1.484       .  S
C4632      C4633   1.406       .  A
C4633      C4634   1.404       .  A
C4633     Br4645   1.918       .  S
C4634      H4637   1.083       .  S
C4636      C4638   1.403       .  A
C4636      C4642   1.407       .  A
C4638      C4639   1.404       .  A
C4638      H4643   1.083       .  S
C4639      C4640   1.417       .  A
C4639     Br4647   1.921       .  S
C4640      C4641   1.407       .  A
C4641      C4642   1.398       .  A
C4641      H4644   1.083       .  S
C4642     Br4648   1.919       .  S
C4649      C4650   1.415       .  A
C4649      C4654   1.407       .  A
C4650      C4651   1.402       .  A
C4650     Br4666   1.920       .  S
C4651      C4652   1.402       .  A
C4651      H4655   1.084       .  S
C4652      C4656   1.478       .  S
C4652      C4653   1.404       .  A
C4653      C4654   1.398       .  A
C4653     Br4665   1.917       .  S
C4654      H4657   1.083       .  S
C4656      C4658   1.401       .  A
C4656      C4662   1.405       .  A
C4658      C4659   1.404       .  A
C4658      H4663   1.083       .  S
C4659      C4660   1.419       .  A
C4659     Br4667   1.920       .  S
C4660      C4661   1.407       .  A
C4661      C4662   1.396       .  A
C4661      H4664   1.083       .  S
C4662     Br4668   1.919       .  S
C4669      C4670   1.414       .  A
C4669      C4674   1.405       .  A
C4670      C4671   1.400       .  A
C4670     Br4686   1.920       .  S
C4671      C4672   1.401       .  A
C4671      H4675   1.083       .  S
C4672      C4676   1.477       .  S
C4672      C4673   1.408       .  A
C4673      C4674   1.398       .  A
C4673     Br4685   1.920       .  S
C4674      H4677   1.084       .  S
C4676      C4678   1.402       .  A
C4676      C4682   1.407       .  A
C4678      C4679   1.401       .  A
C4678      H4683   1.083       .  S
C4679      C4680   1.412       .  A
C4679     Br4687   1.919       .  S
C4680      C4681   1.404       .  A
C4681      C4682   1.397       .  A
C4681      H4684   1.084       .  S
C4682     Br4688   1.920       .  S
C4689      C4690   1.420       .  A
C4689      C4694   1.408       .  A
C4690      C4691   1.398       .  A
C4690     Br4706   1.923       .  S
C4691      C4692   1.398       .  A
C4691      H4695   1.084       .  S
C4692      C4696   1.477       .  S
C4692      C4693   1.406       .  A
C4693      C4694   1.401       .  A
C4693     Br4705   1.918       .  S
C4694      H4697   1.083       .  S
C4696      C4698   1.402       .  A
C4696      C4702   1.404       .  A
C4698      C4699   1.406       .  A
C4698      H4703   1.083       .  S
C4699      C4700   1.418       .  A
C4699     Br4707   1.920       .  S
C4700      C4701   1.408       .  A
C4701      C4702   1.393       .  A
C4701      H4704   1.083       .  S
C4702     Br4708   1.921       .  S
C4709      C4710   1.413   1_545  A
C4709      C4714   1.408       .  A
C4710      C4711   1.400       .  A
C4710     Br4726   1.920       .  S
C4711      C4712   1.402   1_655  A
C4711      H4715   1.084       .  S
C4712      C4716   1.479       .  S
C4712      C4713   1.406   1_465  A
C4713      C4714   1.400       .  A
C4713     Br4725   1.918   1_655  S
C4714      H4717   1.083       .  S
C4716      C4718   1.401       .  A
C4716      C4722   1.406       .  A
C4718      C4719   1.404       .  A
C4718      H4723   1.083       .  S
C4719      C4720   1.418       .  A
C4719     Br4727   1.920       .  S
C4720      C4721   1.406       .  A
C4721      C4722   1.398       .  A
C4721      H4724   1.083       .  S
C4722     Br4728   1.920   1_565  S
C4729      C4730   1.416       .  A
C4729      C4734   1.407       .  A
C4730      C4731   1.405       .  A
C4730     Br4746   1.919       .  S
C4731      C4732   1.403       .  A
C4731      H4735   1.083       .  S
C4732      C4736   1.475       .  S
C4732      C4733   1.403       .  A
C4733      C4734   1.391       .  A
C4733     Br4745   1.921       .  S
C4734      H4737   1.084       .  S
C4736      C4738   1.398       .  A
C4736      C4742   1.405       .  A
C4738      C4739   1.400       .  A
C4738      H4743   1.084       .  S
C4739      C4740   1.422       .  A
C4739     Br4747   1.923       .  S
C4740      C4741   1.408       .  A
C4741      C4742   1.399       .  A
C4741      H4744   1.083       .  S
C4742     Br4748   1.919       .  S
C4749      C4750   1.420       .  A
C4749      C4754   1.408       .  A
C4750      C4751   1.400       .  A
C4750     Br4766   1.921       .  S
C4751      C4752   1.398       .  A
C4751      H4755   1.084       .  S
C4752      C4756   1.478       .  S
C4752      C4753   1.407       .  A
C4753      C4754   1.400       .  A
C4753     Br4765   1.919       .  S
C4754      H4757   1.083       .  S
C4756      C4758   1.401       .  A
C4756      C4762   1.405       .  A
C4758      C4759   1.399       .  A
C4758      H4763   1.084       .  S
C4759      C4760   1.416       .  A
C4759     Br4767   1.923       .  S
C4760      C4761   1.407       .  A
C4761      C4762   1.400       .  A
C4761      H4764   1.083       .  S
C4762     Br4768   1.917       .  S
C4769      C4770   1.412       .  A
C4769      C4774   1.405       .  A
C4770      C4771   1.403       .  A
C4770     Br4786   1.918       .  S
C4771      C4772   1.402       .  A
C4771      H4775   1.083       .  S
C4772      C4776   1.474       .  S
C4772      C4773   1.405       .  A
C4773      C4774   1.394       .  A
C4773     Br4785   1.921       .  S
C4774      H4777   1.084       .  S
C4776      C4778   1.399       .  A
C4776      C4782   1.407       .  A
C4778      C4779   1.400       .  A
C4778      H4783   1.084       .  S
C4779      C4780   1.415       .  A
C4779     Br4787   1.920       .  S
C4780      C4781   1.405       .  A
C4781      C4782   1.397       .  A
C4781      H4784   1.083       .  S
C4782     Br4788   1.920       .  S
C4789      C4790   1.417       .  A
C4789      C4794   1.406       .  A
C4790      C4791   1.405       .  A
C4790     Br4806   1.919       .  S
C4791      C4792   1.401       .  A
C4791      H4795   1.083       .  S
C4792      C4796   1.476       .  S
C4792      C4793   1.404       .  A
C4793      C4794   1.394       .  A
C4793     Br4805   1.920   1_556  S
C4794      H4797   1.083       .  S
C4796      C4798   1.401       .  A
C4796      C4802   1.405   1_556  A
C4798      C4799   1.400       .  A
C4798      H4803   1.084       .  S
C4799      C4800   1.415   1_556  A
C4799     Br4807   1.920       .  S
C4800      C4801   1.407       .  A
C4801      C4802   1.398       .  A
C4801      H4804   1.083       .  S
C4802     Br4808   1.918       .  S
C4809      C4810   1.416       .  A
C4809      C4814   1.406       .  A
C4810      C4811   1.400       .  A
C4810     Br4826   1.921       .  S
C4811      C4812   1.401       .  A
C4811      H4815   1.084       .  S
C4812      C4816   1.478       .  S
C4812      C4813   1.407       .  A
C4813      C4814   1.397       .  A
C4813     Br4825   1.920       .  S
C4814      H4817   1.083       .  S
C4816      C4818   1.400       .  A
C4816      C4822   1.406       .  A
C4818      C4819   1.398       .  A
C4818      H4823   1.084       .  S
C4819      C4820   1.415       .  A
C4819     Br4827   1.921       .  S
C4820      C4821   1.409       .  A
C4821      C4822   1.400       .  A
C4821      H4824   1.083       .  S
C4822     Br4828   1.919       .  S
C4829      C4830   1.418       .  A
C4829      C4834   1.405       .  A
C4830      C4831   1.404       .  A
C4830     Br4846   1.920       .  S
C4831      C4832   1.403       .  A
C4831      H4835   1.084       .  S
C4832      C4836   1.483       .  S
C4832      C4833   1.408       .  A
C4833      C4834   1.395       .  A
C4833     Br4845   1.921       .  S
C4834      H4837   1.083       .  S
C4836      C4838   1.402       .  A
C4836      C4842   1.407       .  A
C4838      C4839   1.401       .  A
C4838      H4843   1.084       .  S
C4839      C4840   1.417       .  A
C4839     Br4847   1.921       .  S
C4840      C4841   1.408       .  A
C4841      C4842   1.398       .  A
C4841      H4844   1.083       .  S
C4842     Br4848   1.920       .  S
C4849      C4850   1.418       .  A
C4849      C4854   1.408       .  A
C4850      C4851   1.399       .  A
C4850     Br4866   1.921       .  S
C4851      C4852   1.400       .  A
C4851      H4855   1.084       .  S
C4852      C4856   1.476       .  S
C4852      C4853   1.406       .  A
C4853      C4854   1.397       .  A
C4853     Br4865   1.921       .  S
C4854      H4857   1.083       .  S
C4856      C4858   1.401       .  A
C4856      C4862   1.406       .  A
C4858      C4859   1.397       .  A
C4858      H4863   1.084       .  S
C4859      C4860   1.412       .  A
C4859     Br4867   1.920       .  S
C4860      C4861   1.409       .  A
C4861      C4862   1.399       .  A
C4861      H4864   1.083       .  S
C4862     Br4868   1.919       .  S
C4869      C4870   1.417       .  A
C4869      C4874   1.410       .  A
C4870      C4871   1.401       .  A
C4870     Br4886   1.920       .  S
C4871      C4872   1.401       .  A
C4871      H4875   1.084       .  S
C4872      C4876   1.477       .  S
C4872      C4873   1.404       .  A
C4873      C4874   1.398       .  A
C4873     Br4885   1.918       .  S
C4874      H4877   1.083       .  S
C4876      C4878   1.400       .  A
C4876      C4882   1.407       .  A
C4878      C4879   1.395       .  A
C4878      H4883   1.084       .  S
C4879      C4880   1.413       .  A
C4879     Br4887   1.923       .  S
C4880      C4881   1.407       .  A
C4881      C4882   1.403       .  A
C4881      H4884   1.083       .  S
C4882     Br4888   1.917       .  S
C4889      C4890   1.417       .  A
C4889      C4894   1.409       .  A
C4890      C4891   1.401       .  A
C4890     Br4906   1.920       .  S
C4891      C4892   1.401       .  A
C4891      H4895   1.084       .  S
C4892      C4896   1.476   1_655  S
C4892      C4893   1.403       .  A
C4893      C4894   1.399       .  A
C4893     Br4905   1.918   1_655  S
C4894      H4897   1.083       .  S
C4896      C4898   1.401       .  A
C4896      C4902   1.405       .  A
C4898      C4899   1.402       .  A
C4898      H4903   1.083       .  S
C4899      C4900   1.417       .  A
C4899     Br4907   1.921       .  S
C4900      C4901   1.406       .  A
C4901      C4902   1.396       .  A
C4901      H4904   1.083       .  S
C4902     Br4908   1.919       .  S
C4909      C4910   1.420       .  A
C4909      C4914   1.409       .  A
C4910      C4911   1.402       .  A
C4910     Br4926   1.921       .  S
C4911      C4912   1.399       .  A
C4911      H4915   1.084       .  S
C4912      C4916   1.480       .  S
C4912      C4913   1.407       .  A
C4913      C4914   1.400       .  A
C4913     Br4925   1.920       .  S
C4914      H4917   1.083       .  S
C4916      C4918   1.401       .  A
C4916      C4922   1.404       .  A
C4918      C4919   1.401       .  A
C4918      H4923   1.084       .  S
C4919      C4920   1.417       .  A
C4919     Br4927   1.921       .  S
C4920      C4921   1.410       .  A
C4921      C4922   1.399       .  A
C4921      H4924   1.083       .  S
C4922     Br4928   1.918       .  S
C4929      C4930   1.411       .  A
C4929      C4934   1.405       .  A
C4930      C4931   1.398       .  A
C4930     Br4946   1.920       .  S
C4931      C4932   1.402       .  A
C4931      H4935   1.084       .  S
C4932      C4936   1.481       .  S
C4932      C4933   1.408       .  A
C4933      C4934   1.402       .  A
C4933     Br4945   1.917       .  S
C4934      H4937   1.083       .  S
C4936      C4938   1.402       .  A
C4936      C4942   1.405       .  A
C4938      C4939   1.401       .  A
C4938      H4943   1.084       .  S
C4939      C4940   1.416       .  A
C4939     Br4947   1.921       .  S
C4940      C4941   1.409       .  A
C4941      C4942   1.399       .  A
C4941      H4944   1.083       .  S
C4942     Br4948   1.918       .  S
C4949      C4950   1.415       .  A
C4949      C4954   1.405   1_655  A
C4950      C4951   1.402       .  A
C4950     Br4966   1.919       .  S
C4951      C4952   1.402   1_655  A
C4951      H4955   1.083       .  S
C4952      C4956   1.478       .  S
C4952      C4953   1.408       .  A
C4953      C4954   1.393       .  A
C4953     Br4965   1.922       .  S
C4954      H4957   1.083       .  S
C4956      C4958   1.401   1_556  A
C4956      C4962   1.405       .  A
C4958      C4959   1.396       .  A
C4958      H4963   1.084   1_455  S
C4959      C4960   1.416       .  A
C4959     Br4967   1.921       .  S
C4960      C4961   1.410       .  A
C4961      C4962   1.401   1_554  A
C4961      H4964   1.083       .  S
C4962     Br4968   1.918       .  S
C4969      C4970   1.421       .  A
C4969      C4974   1.407       .  A
C4970      C4971   1.400       .  A
C4970     Br4986   1.922       .  S
C4971      C4972   1.400       .  A
C4971      H4975   1.084       .  S
C4972      C4976   1.480       .  S
C4972      C4973   1.407       .  A
C4973      C4974   1.399       .  A
C4973     Br4985   1.920       .  S
C4974      H4977   1.083       .  S
C4976      C4978   1.405       .  A
C4976      C4982   1.408       .  A
C4978      C4979   1.403       .  A
C4978      H4983   1.083       .  S
C4979      C4980   1.411       .  A
C4979     Br4987   1.919       .  S
C4980      C4981   1.403       .  A
C4981      C4982   1.393       .  A
C4981      H4984   1.084       .  S
C4982     Br4988   1.921       .  S
C4989      C4990   1.411       .  A
C4989      C4994   1.406       .  A
C4990      C4991   1.396       .  A
C4990     Br5006   1.921       .  S
C4991      C4992   1.402       .  A
C4991      H4995   1.084       .  S
C4992      C4996   1.476       .  S
C4992      C4993   1.406       .  A
C4993      C4994   1.400       .  A
C4993     Br5005   1.917       .  S
C4994      H4997   1.084       .  S
C4996      C4998   1.402       .  A
C4996      C5002   1.404       .  A
C4998      C4999   1.399       .  A
C4998      H5003   1.084       .  S
C4999      C5000   1.413       .  A
C4999     Br5007   1.920       .  S
C5000      C5001   1.407       .  A
C5001      C5002   1.399       .  A
C5001      H5004   1.084       .  S
C5002     Br5008   1.918       .  S
C5009      C5010   1.414       .  A
C5009      C5014   1.407       .  A
C5010      C5011   1.402       .  A
C5010     Br5026   1.920       .  S
C5011      C5012   1.402       .  A
C5011      H5015   1.084       .  S
C5012      C5016   1.480       .  S
C5012      C5013   1.406       .  A
C5013      C5014   1.401       .  A
C5013     Br5025   1.918       .  S
C5014      H5017   1.083       .  S
C5016      C5018   1.403       .  A
C5016      C5022   1.405       .  A
C5018      C5019   1.406       .  A
C5018      H5023   1.083       .  S
C5019      C5020   1.416       .  A
C5019     Br5027   1.919       .  S
C5020      C5021   1.406       .  A
C5021      C5022   1.395       .  A
C5021      H5024   1.083       .  S
C5022     Br5028   1.920       .  S
C5029      C5030   1.420       .  A
C5029      C5034   1.407       .  A
C5030      C5031   1.397       .  A
C5030     Br5046   1.923       .  S
C5031      C5032   1.397       .  A
C5031      H5035   1.084       .  S
C5032      C5036   1.469       .  S
C5032      C5033   1.404       .  A
C5033      C5034   1.396       .  A
C5033     Br5045   1.919       .  S
C5034      H5037   1.083       .  S
C5036      C5038   1.400       .  A
C5036      C5042   1.403       .  A
C5038      C5039   1.402       .  A
C5038      H5043   1.083       .  S
C5039      C5040   1.417       .  A
C5039     Br5047   1.920       .  S
C5040      C5041   1.406       .  A
C5041      C5042   1.389       .  A
C5041      H5044   1.083       .  S
C5042     Br5048   1.922       .  S
C5049      C5050   1.418       .  A
C5049      C5054   1.408       .  A
C5050      C5051   1.401       .  A
C5050     Br5066   1.921       .  S
C5051      C5052   1.400       .  A
C5051      H5055   1.084       .  S
C5052      C5056   1.480       .  S
C5052      C5053   1.407       .  A
C5053      C5054   1.399       .  A
C5053     Br5065   1.920       .  S
C5054      H5057   1.083       .  S
C5056      C5058   1.403       .  A
C5056      C5062   1.406       .  A
C5058      C5059   1.401       .  A
C5058      H5063   1.084       .  S
C5059      C5060   1.411       .  A
C5059     Br5067   1.919       .  S
C5060      C5061   1.409       .  A
C5061      C5062   1.400       .  A
C5061      H5064   1.083       .  S
C5062     Br5068   1.919       .  S
C5069      C5070   1.414       .  A
C5069      C5074   1.406       .  A
C5070      C5071   1.396       .  A
C5070     Br5086   1.923       .  S
C5071      C5072   1.400       .  A
C5071      H5075   1.084       .  S
C5072      C5076   1.474       .  S
C5072      C5073   1.404       .  A
C5073      C5074   1.401       .  A
C5073     Br5085   1.916       .  S
C5074      H5077   1.083       .  S
C5076      C5078   1.399       .  A
C5076      C5082   1.403       .  A
C5078      C5079   1.400       .  A
C5078      H5083   1.084       .  S
C5079      C5080   1.418       .  A
C5079     Br5087   1.922       .  S
C5080      C5081   1.409       .  A
C5081      C5082   1.398       .  A
C5081      H5084   1.083       .  S
C5082     Br5088   1.918       .  S
