geometry optimzed in LAMMPS
_audit_creation_date              2020-12-01 
_audit_creation_method            'lammps2cif' 
_symmetry_space_group_name_H-M    'P1' 
_symmetry_Int_Tables_number       1 
_symmetry_cell_setting            triclinic 
loop_ 
_symmetry_equiv_pos_as_xyz 
  x,y,z 
_cell_length_a                    76.2109595 
_cell_length_b                    76.16791533601486 
_cell_length_c                    76.21278025663395 
_cell_angle_alpha                 89.95722826776604 
_cell_angle_beta                  90.21642703152025 
_cell_angle_gamma                 90.01837273296923 
loop_ 
_atom_site_label 
_atom_site_type_symbol 
_atom_site_fract_x 
_atom_site_fract_y 
_atom_site_fract_z 
_atom_site_charge 
O1          O  0.75129815  0.76629118  0.61780923    -0.57100
C2          C  0.74007191  0.71994547  0.61384709     0.75600
O3          O  0.70893229  0.76296493  0.62918430    -0.58200
C4          C  0.74645738  0.78211865  0.61640631     0.75500
C5          C  0.72508882  0.75625022  0.56580315     0.77900
Cd6        Cd  0.72567720  0.75343191  0.60364396     1.37500
O7          O  0.74933249  0.73366907  0.61282648    -0.57100
O8          O  0.73682154  0.74826622  0.57431430    -0.55900
C9          C  0.69537795  0.75387964  0.62618196     0.77900
O10         O  0.71297705  0.76301452  0.57489716    -0.58200
O11         O  0.72405616  0.72158003  0.60967105    -0.56700
O12         O  0.73222854  0.78477234  0.60819672    -0.56700
O13         O  0.69517932  0.74553214  0.61182166    -0.55900
O14         O  0.80288061  0.60359641  0.73858770    -0.57100
C15         C  0.75016138  0.60098194  0.72987404     0.75600
O16         O  0.78075711  0.60261246  0.68288130    -0.58200
C17         C  0.81621367  0.60639778  0.72911855     0.75500
C18         C  0.78744362  0.55566508  0.71128006     0.77900
Cd19       Cd  0.78390194  0.59348799  0.71431225     1.37500
O20         O  0.76437963  0.60275616  0.73829178    -0.57100
O21         O  0.78623640  0.56335758  0.72593278    -0.55900
C22         C  0.78069493  0.61890917  0.68639274     0.77900
O23         O  0.78712124  0.56556021  0.69793849    -0.58200
O24         O  0.75153642  0.59450229  0.71465378    -0.56700
O25         O  0.81503664  0.60176526  0.71322264    -0.56700
O26         O  0.78232319  0.62287453  0.70238417    -0.55900
O27         O  0.63436596  0.70408658  0.79815165    -0.57100
C28         C  0.63461039  0.72154621  0.73604189     0.75600
O29         O  0.63521329  0.67917124  0.74840395    -0.58200
C30         C  0.63939818  0.71991532  0.79776322     0.75500
C31         C  0.58627541  0.70092130  0.77097724     0.77900
Cd32       Cd  0.62416860  0.70295991  0.76728366     1.37500
O33         O  0.64245134  0.72336836  0.75057130    -0.57100
O34         O  0.59428502  0.71522837  0.76859673    -0.55900
C35         C  0.64477898  0.67188351  0.75983239     0.77900
O36         O  0.59587814  0.68745104  0.77251081    -0.58200
O37         O  0.62105594  0.71193342  0.73618780    -0.56700
O38         O  0.63638802  0.72809295  0.78359489    -0.56700
O39         O  0.64350197  0.67785539  0.77525354    -0.55900
O40         O  0.90965480  0.70191278  0.76661307    -0.57100
C41         C  0.91361948  0.75581497  0.76630205     0.75600
O42         O  0.90866556  0.72645956  0.81888224    -0.58200
C43         C  0.90203351  0.69236663  0.77787051     0.75500
C44         C  0.95606218  0.72095447  0.79189354     0.77900
Cd45       Cd  0.91849594  0.72506851  0.78771898     1.37500
O46         O  0.90681734  0.74120110  0.76216389    -0.57100
O47         O  0.94799169  0.71612583  0.77820921    -0.55900
C48         C  0.89497715  0.73529100  0.81537933     0.77900
O49         O  0.94660750  0.72713311  0.80404976    -0.58200
O50         O  0.92379730  0.75571210  0.77943389    -0.56700
O51         O  0.90316111  0.69730935  0.79365336    -0.56700
O52         O  0.89303194  0.73984632  0.79954545    -0.55900
O53         O  0.79307717  0.87436709  0.71142601    -0.57100
C54         C  0.79982807  0.87676007  0.75845746     0.75600
O55         O  0.84547921  0.86903717  0.71814194    -0.58200
C56         C  0.80118494  0.86897211  0.69804311     0.75500
C57         C  0.82136903  0.92305890  0.72171433     0.77900
Cd58       Cd  0.81877097  0.88552570  0.72702059     1.37500
O59         O  0.79777366  0.86856290  0.74420062    -0.57100
O60         O  0.80721207  0.91470196  0.71969776    -0.55900
C61         C  0.84937232  0.86418878  0.73355600     0.77900
O62         O  0.83465806  0.91397400  0.72581793    -0.58200
O63         O  0.81001637  0.88989695  0.75790657    -0.56700
O64         O  0.81745091  0.87237738  0.69752760    -0.56700
O65         O  0.83999426  0.87045314  0.74566159    -0.55900
O66         O  0.74473876  0.76655460  0.87748685    -0.57100
C67         C  0.79116730  0.77238257  0.88586760     0.75600
O68         O  0.77294363  0.81731161  0.88295318    -0.58200
C69         C  0.72905671  0.77164755  0.87907086     0.75500
C70         C  0.75441736  0.79382784  0.93130601     0.77900
Cd71       Cd  0.75863588  0.79020299  0.89365530     1.37500
O72         O  0.77669882  0.76419252  0.88587477    -0.57100
O73         O  0.76034845  0.78012046  0.92414390    -0.55900
C74         C  0.76309629  0.81945588  0.86974847     0.77900
O75         O  0.75031954  0.80620020  0.92099987    -0.58200
O76         O  0.79048097  0.78833995  0.89032835    -0.56700
O77         O  0.72678535  0.78514939  0.88852322    -0.56700
O78         O  0.75012062  0.80917169  0.86865705    -0.55900
O79         O  0.30273036  0.21775792  0.11684757    -0.57100
C80         C  0.25381635  0.20854581  0.11203116     0.75600
O81         O  0.29534722  0.17982142  0.07321547    -0.58200
C82         C  0.31747387  0.21016521  0.11801663     0.75500
C83         C  0.28381213  0.16275882  0.12352714     0.77900
Cd84       Cd  0.28723258  0.19365694  0.10198106     1.37500
O85         O  0.26750285  0.21791321  0.11103761    -0.57100
O86         O  0.29244024  0.17611079  0.12822929    -0.55900
C87         C  0.29123318  0.19300033  0.06393858     0.77900
O88         O  0.27752284  0.16309131  0.10810641    -0.58200
O89         O  0.25541107  0.19281317  0.10707445    -0.56700
O90         O  0.31851665  0.19534318  0.11059359    -0.56700
O91         O  0.28588988  0.20621697  0.07233402    -0.55900
O92         O  0.13942528  0.27273880  0.23337113    -0.57100
C93         C  0.13133750  0.22126513  0.22410354     0.75600
O94         O  0.09768614  0.26023798  0.19412487    -0.58200
C95         C  0.13999221  0.28717619  0.22512143     0.75500
C96         C  0.15176294  0.25187179  0.18223851     0.77900
Cd97       Cd  0.12606704  0.25564190  0.20961596     1.37500
O98         O  0.13242656  0.23488730  0.23357343    -0.57100
O99         O  0.15555379  0.25352816  0.19828349    -0.55900
C100        C  0.08838978  0.25972154  0.20788778     0.77900
O101        O  0.13554024  0.25234861  0.17835477    -0.58200
O102        O  0.12660145  0.22357388  0.20836183    -0.56700
O103        O  0.13291874  0.28722463  0.21007488    -0.56700
O104        O  0.09662824  0.25781608  0.22217498    -0.55900
O105        O  0.24983835  0.09600206  0.24100630    -0.57100
C106        C  0.24378014  0.10742743  0.29354088     0.75600
O107        O  0.19426021  0.10141115  0.26191334    -0.58200
C108        C  0.23991700  0.10149958  0.22885879     0.75500
C109        C  0.22149290  0.05647935  0.26724401     0.77900
Cd110      Cd  0.22592403  0.09380788  0.26312773     1.37500
O111        O  0.25076844  0.10730873  0.27848881    -0.57100
O112        O  0.23613956  0.06402983  0.26916548    -0.55900
C113        C  0.19691954  0.11770456  0.26414674     0.77900
O114        O  0.20866182  0.06625981  0.26334847    -0.58200
O115        O  0.22888796  0.10017781  0.29464836    -0.56700
O116        O  0.22374022  0.10215465  0.23222189    -0.56700
O117        O  0.21267272  0.12236468  0.26639076    -0.55900
O118        O  0.27304186  0.36841019  0.27862687    -0.57100
C119        C  0.22509756  0.37470506  0.27407041     0.75600
O120        O  0.27067964  0.38186881  0.31880512    -0.58200
C121        C  0.28626324  0.37810005  0.27609980     0.75500
C122        C  0.25049859  0.42851130  0.29100347     0.77900
Cd123      Cd  0.25430769  0.39057858  0.29222566     1.37500
O124        O  0.24020701  0.37572288  0.26732887    -0.57100
O125        O  0.25131868  0.41912634  0.27738128    -0.55900
C126        C  0.25844261  0.37294396  0.32557517     0.77900
O127        O  0.25091119  0.42032079  0.30546536    -0.58200
O128        O  0.22316847  0.38201406  0.28884978    -0.56700
O129        O  0.28459755  0.39400945  0.28058397    -0.56700
O130        O  0.24372204  0.37382986  0.31792815    -0.55900
O131        O  0.27876609  0.24815840  0.38411056    -0.57100
C132        C  0.28928398  0.19607099  0.37885203     0.75600
O133        O  0.33455952  0.23054201  0.38413396    -0.58200
C134        C  0.28689377  0.26231400  0.38721103     0.75500
C135        C  0.30428664  0.22355098  0.43071213     0.77900
Cd136      Cd  0.30305090  0.22832067  0.39286802     1.37500
O137        O  0.28011765  0.20989901  0.38001994    -0.57100
O138        O  0.29023123  0.22293665  0.42189879    -0.55900
C139        C  0.33123760  0.23196064  0.36786867     0.77900
O140        O  0.31813708  0.22618142  0.42191024    -0.58200
O141        O  0.30454552  0.19686437  0.38539082    -0.56700
O142        O  0.30203611  0.26065309  0.39388646    -0.56700
O143        O  0.31519191  0.23146955  0.36367240    -0.55900
O144        O  0.40742187  0.25804985  0.25286691    -0.57100
C145        C  0.40238943  0.26441542  0.20383244     0.75600
O146        O  0.39001540  0.29978285  0.22849253    -0.58200
C147        C  0.40693186  0.26692028  0.26689698     0.75500
C148        C  0.45458762  0.28618356  0.22994209     0.77900
Cd149      Cd  0.41668858  0.28280037  0.23396274     1.37500
O150        O  0.40504894  0.25680457  0.21839417    -0.57100
O151        O  0.44756632  0.27431454  0.23913912    -0.55900
C152        C  0.39356716  0.31263659  0.23835616     0.77900
O153        O  0.44407424  0.29662448  0.22242395    -0.58200
O154        O  0.40744704  0.28021475  0.20296548    -0.56700
O155        O  0.41190736  0.28271759  0.26571758    -0.56700
O156        O  0.40870365  0.31252487  0.24524918    -0.55900
O157        O  0.40769086  0.72949232  0.74273238    -0.57100
C158        C  0.40085530  0.71913644  0.79031544     0.75600
O159        O  0.40230722  0.67460462  0.76383859    -0.58200
C160        C  0.41401464  0.72464815  0.72819402     0.75500
C161        C  0.45436452  0.69772176  0.76574828     0.77900
Cd162      Cd  0.41714243  0.70368311  0.75963147     1.37500
O163        O  0.40632411  0.72834676  0.77766577    -0.57100
O164        O  0.44696756  0.71232771  0.76832818    -0.55900
C165        C  0.39257710  0.67602448  0.75039237     0.77900
O166        O  0.44445870  0.68546297  0.76050726    -0.58200
O167        O  0.40360132  0.70279898  0.78912231    -0.56700
O168        O  0.42286351  0.71055934  0.72849844    -0.56700
O169        O  0.39476468  0.68969034  0.74131022    -0.55900
O170        O  0.28676381  0.74199364  0.61317311    -0.57100
C171        C  0.29652049  0.79088854  0.61851045     0.75600
O172        O  0.34273382  0.76533207  0.61269503    -0.58200
C173        C  0.29282905  0.72744716  0.60791445     0.75500
C174        C  0.31448394  0.76366778  0.56524947     0.77900
Cd175      Cd  0.31181771  0.75996065  0.60302918     1.37500
O176        O  0.28800290  0.77680341  0.61639738    -0.57100
O177        O  0.30153200  0.76930040  0.57385420    -0.55900
C178        C  0.34180408  0.75538128  0.62596486     0.77900
O179        O  0.32655723  0.75660843  0.57425591    -0.58200
O180        O  0.31198562  0.79102318  0.61250646    -0.56700
O181        O  0.30720152  0.72814531  0.59969852    -0.56700
O182        O  0.32735619  0.74755204  0.62809199    -0.55900
O183        O  0.26956422  0.61731043  0.72007692    -0.57100
C184        C  0.22120798  0.61389328  0.71781475     0.75600
O185        O  0.24419618  0.62210183  0.67878076    -0.58200
C186        C  0.28402183  0.61012731  0.71620471     0.75500
C187        C  0.24725138  0.56139890  0.70000640     0.77900
Cd188      Cd  0.25131177  0.59920847  0.70020284     1.37500
O189        O  0.23543423  0.61085521  0.72589860    -0.57100
O190        O  0.25485536  0.56957350  0.71227045    -0.55900
C191        C  0.25629050  0.61873986  0.66803677     0.77900
O192        O  0.24066277  0.57073760  0.68792004    -0.58200
O193        O  0.22059455  0.60883368  0.70199807    -0.56700
O194        O  0.28308478  0.59751278  0.70550314    -0.56700
O195        O  0.26533946  0.60520608  0.67127646    -0.55900
O196        O  0.26393561  0.88009839  0.75638588    -0.57100
C197        C  0.25575477  0.87902229  0.70497834     0.75600
O198        O  0.20905030  0.88372014  0.74444308    -0.58200
C199        C  0.25644474  0.88369098  0.77074046     0.75500
C200        C  0.23667906  0.92912918  0.73206343     0.77900
Cd201      Cd  0.24018681  0.89147267  0.73717864     1.37500
O202        O  0.26453159  0.88004768  0.71907674    -0.57100
O203        O  0.25113272  0.92215880  0.73641922    -0.55900
C204        C  0.21055008  0.86774843  0.74003582     0.77900
O205        O  0.22393844  0.91867166  0.73011468    -0.58200
O206        O  0.24018001  0.88473853  0.70568063    -0.56700
O207        O  0.24202054  0.89178268  0.76947666    -0.56700
O208        O  0.22544984  0.86322715  0.73449603    -0.55900
O209        O  0.13467545  0.75341988  0.76609477    -0.57100
C210        C  0.14102755  0.70426188  0.76912498     0.75600
O211        O  0.13549069  0.74247887  0.81895955    -0.58200
C212        C  0.13672000  0.76641122  0.77626142     0.75500
C213        C  0.08815591  0.72961818  0.79145578     0.77900
Cd214      Cd  0.12615754  0.73243005  0.78959500     1.37500
O215        O  0.14418967  0.72026687  0.76612676    -0.57100
O216        O  0.09603535  0.73564324  0.77822044    -0.55900
C217        C  0.14759570  0.73126867  0.82087836     0.77900
O218        O  0.09792937  0.72459204  0.80393490    -0.58200
O219        O  0.13005167  0.70122109  0.78121133    -0.56700
O220        O  0.13279414  0.76385160  0.79214832    -0.56700
O221        O  0.14884785  0.71979866  0.80899303    -0.55900
O222        O  0.27050945  0.75639399  0.88069425    -0.57100
C223        C  0.31682962  0.76316206  0.88077671     0.75600
O224        O  0.29533898  0.80705971  0.88238989    -0.58200
C225        C  0.25560879  0.75955712  0.88718903     0.75500
C226        C  0.28904683  0.77945752  0.93505652     0.77900
Cd227      Cd  0.28652632  0.77899573  0.89700515     1.37500
O228        O  0.30264007  0.75498088  0.88326312    -0.57100
O229        O  0.29141511  0.76573825  0.92611541    -0.55900
C230        C  0.28036332  0.81007066  0.87578604     0.77900
O231        O  0.28630831  0.79334445  0.92634356    -0.58200
O232        O  0.31743241  0.77863270  0.88686186    -0.56700
O233        O  0.25521558  0.77113168  0.89911296    -0.56700
O234        O  0.26838842  0.79959449  0.88027447    -0.55900
O235        O  0.28027281  0.21876158  0.61376600    -0.57100
C236        C  0.28785204  0.26805472  0.60793641     0.75600
O237        O  0.33598090  0.24294533  0.60870523    -0.58200
C238        C  0.28833516  0.20431612  0.61537264     0.75500
C239        C  0.30593080  0.22858794  0.56308392     0.77900
Cd240      Cd  0.30480476  0.23489245  0.60073224     1.37500
O241        O  0.28015325  0.25350123  0.61018282    -0.57100
O242        O  0.29364109  0.23686293  0.57046903    -0.55900
C243        C  0.33382775  0.23949075  0.62484964     0.77900
O244        O  0.31814355  0.22323326  0.57304730    -0.58200
O245        O  0.30312440  0.26736584  0.60146438    -0.56700
O246        O  0.30370314  0.20376315  0.60918152    -0.56700
O247        O  0.31904889  0.23334487  0.62901954    -0.55900
O248        O  0.22112231  0.38912429  0.72286604    -0.57100
C249        C  0.28322691  0.38615819  0.73006240     0.75600
O250        O  0.24058239  0.37677231  0.68329169    -0.58200
C251        C  0.22274320  0.37313540  0.72712908     0.75500
C252        C  0.24531255  0.42944291  0.70746788     0.77900
Cd253      Cd  0.25118111  0.39183119  0.71035192     1.37500
O254        O  0.26852990  0.38100536  0.73578290    -0.57100
O255        O  0.24820055  0.42198416  0.72202181    -0.55900
C256        C  0.25567800  0.37290064  0.67766970     0.77900
O257        O  0.24495688  0.41945330  0.69420312    -0.58200
O258        O  0.28290178  0.39462780  0.71579735    -0.56700
O259        O  0.23741231  0.36616945  0.72382660    -0.56700
O260        O  0.26838644  0.37897923  0.68646572    -0.55900
O261        O  0.39393464  0.27029900  0.77276653    -0.57100
C262        C  0.40396902  0.28037869  0.72778141     0.75600
O263        O  0.40535713  0.32324527  0.75115974    -0.58200
C264        C  0.39644445  0.27347828  0.78888049     0.75500
C265        C  0.45090388  0.29102327  0.76797334     0.77900
Cd266      Cd  0.41331361  0.29355333  0.76199161     1.37500
O267        O  0.40329986  0.27081602  0.74135452    -0.57100
O268        O  0.44192680  0.27934931  0.76043546    -0.55900
C269        C  0.39313217  0.32560405  0.76211729     0.77900
O270        O  0.44249709  0.30456782  0.77263185    -0.58200
O271        O  0.40992118  0.29573815  0.72992875    -0.56700
O272        O  0.40704535  0.28576348  0.79249604    -0.56700
O273        O  0.39144368  0.31394978  0.77377346    -0.55900
O274        O  0.12996074  0.27760283  0.77321915    -0.57100
C275        C  0.13066183  0.22764565  0.77764055     0.75600
O276        O  0.13611044  0.26686411  0.82622576    -0.58200
C277        C  0.13757419  0.28924488  0.78232610     0.75500
C278        C  0.08428464  0.26292305  0.80306795     0.77900
Cd279      Cd  0.12189817  0.25841691  0.79817783     1.37500
O280        O  0.13880132  0.24205010  0.77619256    -0.57100
O281        O  0.09200682  0.26793388  0.78930092    -0.55900
C282        C  0.14308318  0.25205883  0.82917721     0.77900
O283        O  0.09399184  0.25635186  0.81482180    -0.58200
O284        O  0.11757148  0.22778531  0.78779186    -0.56700
O285        O  0.13732858  0.28688877  0.79876596    -0.56700
O286        O  0.13934349  0.24005463  0.81836910    -0.55900
O287        O  0.25155200  0.11259323  0.74760193    -0.57100
C288        C  0.24200941  0.11501699  0.69942389     0.75600
O289        O  0.21199719  0.07024363  0.72961418    -0.58200
C290        C  0.24498077  0.10936535  0.76249630     0.75500
C291        C  0.19668994  0.12199678  0.73623793     0.77900
Cd292      Cd  0.22696381  0.09951556  0.73048669     1.37500
O293        O  0.25013863  0.11450752  0.71395109    -0.57100
O294        O  0.20346468  0.11268299  0.74818291    -0.55900
C295        C  0.22577376  0.06134779  0.72713102     0.77900
O296        O  0.20289640  0.11969737  0.72105873    -0.58200
O297        O  0.22701276  0.10780469  0.69910604    -0.56700
O298        O  0.23097323  0.10047913  0.76238747    -0.56700
O299        O  0.23975330  0.07010899  0.72556881    -0.55900
O300        O  0.30514779  0.22942728  0.88581576    -0.57100
C301        C  0.25366319  0.22443453  0.89046094     0.75600
O302        O  0.29007822  0.17505571  0.88100648    -0.58200
C303        C  0.31634629  0.22006404  0.87797582     0.75500
C304        C  0.29237234  0.19886256  0.93189973     0.77900
Cd305      Cd  0.28583471  0.20477522  0.89467414     1.37500
O306        O  0.26813348  0.22975467  0.88434859    -0.57100
O307        O  0.29524570  0.21342178  0.92451969    -0.55900
C308        C  0.27714372  0.17651009  0.87058188     0.77900
O309        O  0.28653735  0.18681976  0.92203948    -0.58200
O310        O  0.25439597  0.21082357  0.89999779    -0.56700
O311        O  0.31378418  0.20367098  0.87867582    -0.56700
O312        O  0.26847830  0.19057083  0.87171740    -0.55900
O313        O  0.79914336  0.37510780  0.73621801    -0.57100
C314        C  0.74751276  0.37815684  0.73114739     0.75600
O315        O  0.77720351  0.41449869  0.69770319    -0.58200
C316        C  0.81277247  0.37325184  0.72692715     0.75500
C317        C  0.77812527  0.36235431  0.68318004     0.77900
Cd318      Cd  0.78001209  0.38574804  0.71275184     1.37500
O319        O  0.76239496  0.37459156  0.73758782    -0.57100
O320        O  0.77960885  0.35709749  0.69881917    -0.55900
C321        C  0.78438549  0.42331639  0.70982176     0.77900
O322        O  0.77737555  0.37881542  0.68092797    -0.58200
O323        O  0.74763851  0.38607278  0.71657221    -0.56700
O324        O  0.81152777  0.37824959  0.71112331    -0.56700
O325        O  0.78926532  0.41479648  0.72320776    -0.55900
O326        O  0.63063264  0.25361791  0.74614415    -0.57100
C327        C  0.63825238  0.26162299  0.79440444     0.75600
O328        O  0.63177143  0.30729040  0.77311061    -0.58200
C329        C  0.62687058  0.26117384  0.73181789     0.75500
C330        C  0.58256684  0.28182449  0.76962367     0.77900
Cd331      Cd  0.62020181  0.27764882  0.76513025     1.37500
O332        O  0.63008689  0.25238029  0.78324172    -0.57100
O333        O  0.59029647  0.26761488  0.77334450    -0.55900
C334        C  0.64250536  0.30782331  0.76043579     0.77900
O335        O  0.59230361  0.29419651  0.76446662    -0.58200
O336        O  0.63722799  0.27807718  0.79251798    -0.56700
O337        O  0.61865272  0.27554861  0.73301849    -0.56700
O338        O  0.64239471  0.29481190  0.75018063    -0.55900
O339        O  0.75258229  0.24718074  0.61085537    -0.57100
C340        C  0.74652013  0.19534906  0.61820162     0.75600
O341        O  0.69775365  0.22974237  0.61251391    -0.58200
C342        C  0.74235074  0.26028590  0.61150109     0.75500
C343        C  0.72618530  0.22298954  0.56590195     0.77900
Cd344      Cd  0.72911506  0.22583780  0.60380564     1.37500
O345        O  0.75428786  0.20986058  0.61601852    -0.57100
O346        O  0.73933098  0.22972605  0.57351190    -0.55900
C347        C  0.70114387  0.22969679  0.62882875     0.77900
O348        O  0.71420519  0.21733506  0.57589919    -0.58200
O349        O  0.73114076  0.19429680  0.61193943    -0.56700
O350        O  0.72658875  0.25757984  0.60704362    -0.56700
O351        O  0.71697503  0.22705117  0.63300953    -0.55900
O352        O  0.73728526  0.21721952  0.88347315    -0.57100
C353        C  0.78841366  0.21542820  0.88921071     0.75600
O354        O  0.76099419  0.17946137  0.92253148    -0.58200
C355        C  0.72712799  0.20706619  0.87509953     0.75500
C356        C  0.76616841  0.16463091  0.87227289     0.77900
Cd357      Cd  0.75740696  0.19422341  0.89379301     1.37500
O358        O  0.77332088  0.22109558  0.88514895    -0.57100
O359        O  0.77332398  0.17950863  0.87073072    -0.55900
C360        C  0.75224349  0.19048437  0.93123643     0.77900
O361        O  0.75461844  0.16315896  0.88413355    -0.58200
O362        O  0.78884853  0.20050234  0.89642577    -0.56700
O363        O  0.73046546  0.19083188  0.87608411    -0.56700
O364        O  0.74500651  0.20255650  0.92244221    -0.55900
O365        O  0.78846616  0.10171844  0.75201634    -0.57100
C366        C  0.79550369  0.10584388  0.70142832     0.75600
O367        O  0.84316416  0.10169492  0.73969938    -0.58200
C368        C  0.79616185  0.09763079  0.76619514     0.75500
C369        C  0.81585435  0.05500926  0.72749069     0.77900
Cd370      Cd  0.81242526  0.09251458  0.73255047     1.37500
O371        O  0.78712562  0.10263494  0.71535773    -0.57100
O372        O  0.80207144  0.06232028  0.73296303    -0.55900
C373        C  0.83986967  0.11796857  0.73848490     0.77900
O374        O  0.82844025  0.06524766  0.72379839    -0.58200
O375        O  0.81158212  0.10160712  0.70152864    -0.56700
O376        O  0.81097873  0.09033800  0.76467184    -0.56700
O377        O  0.82442928  0.12194886  0.73392952    -0.55900
O378        O  0.90622933  0.23803942  0.76512942    -0.57100
C379        C  0.90129769  0.28901867  0.77405998     0.75600
O380        O  0.90370667  0.25992077  0.82067698    -0.58200
C381        C  0.90933396  0.22367665  0.77291031     0.75500
C382        C  0.95230802  0.26005028  0.79589660     0.77900
Cd383      Cd  0.91475489  0.25712699  0.78992337     1.37500
O384        O  0.90421513  0.27532756  0.76513854    -0.57100
O385        O  0.94557404  0.26058374  0.78070141    -0.55900
C386        C  0.88968807  0.25149457  0.81760896     0.77900
O387        O  0.94160431  0.25816456  0.80838057    -0.58200
O388        O  0.90551727  0.28815043  0.79007758    -0.56700
O389        O  0.91622292  0.22492994  0.78800804    -0.56700
O390        O  0.88737352  0.24643058  0.80201441    -0.55900
O391        O  0.23512503  0.60976446  0.26115180    -0.57100
C392        C  0.28538047  0.60632467  0.26621083     0.75600
O393        O  0.24681100  0.60924648  0.31479505    -0.58200
C394        C  0.22276630  0.61500613  0.27089162     0.75500
C395        C  0.24945320  0.56066468  0.28722917     0.77900
Cd396      Cd  0.25363805  0.59821446  0.28496048     1.37500
O397        O  0.27118728  0.61443193  0.26323045    -0.57100
O398        O  0.24628590  0.56902784  0.27324930    -0.55900
C399        C  0.26072987  0.61824213  0.31611382     0.77900
O400        O  0.25441616  0.56969286  0.30024600    -0.58200
O401        O  0.28442109  0.59364440  0.27692616    -0.56700
O402        O  0.22434805  0.61172038  0.28707381    -0.56700
O403        O  0.27136697  0.61713412  0.30352800    -0.55900
O404        O  0.41194090  0.70390521  0.20496543    -0.57100
C405        C  0.41221515  0.71719800  0.26907797     0.75600
O406        O  0.40739537  0.67472138  0.25228919    -0.58200
C407        C  0.40395484  0.71833299  0.20707365     0.75500
C408        C  0.45748353  0.69877917  0.23139493     0.77900
Cd409      Cd  0.41970914  0.70020506  0.23621166     1.37500
O410        O  0.40817753  0.72419950  0.25453297    -0.57100
O411        O  0.44920021  0.71279297  0.23430675    -0.55900
C412        C  0.39623207  0.67054234  0.24073009     0.77900
O413        O  0.44817228  0.68506323  0.23003310    -0.58200
O414        O  0.42047579  0.70283712  0.26825252    -0.56700
O415        O  0.40419010  0.72465957  0.22244275    -0.56700
O416        O  0.39718870  0.67880345  0.22638251    -0.55900
O417        O  0.28564830  0.77254869  0.38487488    -0.57100
C418        C  0.29164050  0.72463563  0.38316003     0.75600
O419        O  0.33655594  0.76360789  0.37676697    -0.58200
C420        C  0.29433935  0.78580532  0.37997737     0.75500
C421        C  0.31430706  0.75899926  0.43259574     0.77900
Cd422      Cd  0.31119121  0.75505574  0.39465025     1.37500
O423        O  0.29214612  0.73865298  0.37429642    -0.57100
O424        O  0.29988778  0.75592236  0.42495906    -0.55900
C425        C  0.34283192  0.74839614  0.37483888     0.77900
O426        O  0.32747573  0.76051212  0.42267123    -0.58200
O427        O  0.29980839  0.72492521  0.39766169    -0.56700
O428        O  0.31065135  0.78525846  0.38307298    -0.56700
O429        O  0.33517770  0.73627245  0.38320905    -0.55900
O430        O  0.29986534  0.75292242  0.11862970    -0.57100
C431        C  0.25176090  0.75429541  0.10892079     0.75600
O432        O  0.28548547  0.80701303  0.11586782    -0.58200
C433        C  0.31284997  0.76237739  0.12281035     0.75500
C434        C  0.28715127  0.77951423  0.06745320     0.77900
Cd435      Cd  0.28225467  0.77618234  0.10497732     1.37500
O436        O  0.25168485  0.76773076  0.09916164    -0.57100
O437        O  0.29439680  0.76743854  0.07624016    -0.55900
C438        C  0.27304324  0.80593330  0.12678048     0.77900
O439        O  0.27811846  0.79038485  0.07609032    -0.58200
O440        O  0.26634674  0.75029015  0.11584122    -0.56700
O441        O  0.31215125  0.77825383  0.11787600    -0.56700
O442        O  0.26489888  0.79150487  0.12711161    -0.55900
O443        O  0.13719161  0.71664778  0.22730341    -0.57100
C444        C  0.12972775  0.76230652  0.21913755     0.75600
O445        O  0.13362555  0.74283221  0.17700627    -0.58200
C446        C  0.13554404  0.70083348  0.22255631     0.75500
C447        C  0.08239931  0.72725730  0.19971035     0.77900
Cd448      Cd  0.12020470  0.72943820  0.20316965     1.37500
O449        O  0.12682707  0.74876354  0.22833191    -0.57100
O450        O  0.08996580  0.73088534  0.21401335    -0.55900
C451        C  0.14262952  0.72956696  0.17271021     0.77900
O452        O  0.09241159  0.72436049  0.18687802    -0.58200
O453        O  0.12744145  0.76070253  0.20278084    -0.56700
O454        O  0.12596189  0.69815892  0.20920932    -0.56700
O455        O  0.14033205  0.71591747  0.18184179    -0.55900
O456        O  0.24799642  0.87530439  0.24502994    -0.57100
C457        C  0.24515384  0.87431246  0.29596414     0.75600
O458        O  0.21230000  0.91506655  0.27420140    -0.58200
C459        C  0.23881579  0.87717747  0.23127804     0.75500
C460        C  0.19607814  0.86398733  0.26481098     0.77900
Cd461      Cd  0.22614932  0.88692550  0.26561881     1.37500
O462        O  0.25223727  0.87551101  0.28100435    -0.57100
O463        O  0.21122113  0.85906480  0.26947091    -0.55900
C464        C  0.22454640  0.92476915  0.26858055     0.77900
O465        O  0.19444686  0.88017521  0.26138467    -0.58200
O466        O  0.22971333  0.88028061  0.29709830    -0.56700
O467        O  0.22408870  0.88452894  0.23328946    -0.56700
O468        O  0.23738226  0.91684244  0.26179310    -0.55900
O469        O  0.76267266  0.73511961  0.39152529    -0.57100
C470        C  0.74879029  0.78517994  0.38200956     0.75600
O471        O  0.70527486  0.74684717  0.38772478    -0.58200
C472        C  0.75519467  0.72032550  0.39206997     0.75500
C473        C  0.73116319  0.75812826  0.43405799     0.77900
Cd474      Cd  0.73618978  0.75280412  0.39684154     1.37500
O475        O  0.75876677  0.77203252  0.38406490    -0.57100
O476        O  0.74614096  0.75904777  0.42701529    -0.55900
C477        C  0.70859916  0.74735067  0.37144766     0.77900
O478        O  0.71848052  0.75509839  0.42376435    -0.58200
O479        O  0.73351996  0.78368900  0.38825227    -0.56700
O480        O  0.73909084  0.72055867  0.39603532    -0.56700
O481        O  0.72435444  0.75048793  0.36739394    -0.55900
O482        O  0.76721721  0.59905787  0.26874554    -0.57100
C483        C  0.81892601  0.60838886  0.27156294     0.75600
O484        O  0.78890812  0.60179594  0.32326701    -0.58200
C485        C  0.75476082  0.60140992  0.27945404     0.75500
C486        C  0.79279655  0.55598103  0.29380516     0.77900
Cd487      Cd  0.78996477  0.59395723  0.29134839     1.37500
O488        O  0.80333935  0.60834181  0.26587660    -0.57100
O489        O  0.78571421  0.56372806  0.28095034    -0.55900
C490        C  0.78924624  0.61819941  0.32040520     0.77900
O491        O  0.79914646  0.56582191  0.30562829    -0.58200
O492        O  0.82144339  0.60035794  0.28590742    -0.56700
O493        O  0.75838633  0.59899068  0.29547665    -0.56700
O494        O  0.79060795  0.62277843  0.30453521    -0.55900
O495        O  0.63828630  0.72174503  0.21303930    -0.57100
C496        C  0.63692764  0.71353947  0.26614236     0.75600
O497        O  0.59940565  0.68234883  0.23114600    -0.58200
C498        C  0.63892944  0.71277037  0.19909259     0.75500
C499        C  0.65229256  0.66989504  0.23606060     0.77900
Cd500      Cd  0.62779124  0.69833316  0.23245902     1.37500
O501        O  0.63684141  0.72280834  0.25233631    -0.57100
O502        O  0.65678632  0.68553868  0.23289102    -0.55900
C503        C  0.58992378  0.69594697  0.23002365     0.77900
O504        O  0.63591490  0.66692971  0.23675134    -0.58200
O505        O  0.63154151  0.69794239  0.26445231    -0.56700
O506        O  0.63391259  0.69696419  0.20043331    -0.56700
O507        O  0.59796208  0.71047301  0.23001190    -0.55900
O508        O  0.90399023  0.74647501  0.23272444    -0.57100
C509        C  0.90254346  0.69517661  0.22246546     0.75600
O510        O  0.90332968  0.72891037  0.17581293    -0.58200
C511        C  0.90672010  0.76120875  0.22559881     0.75500
C512        C  0.95042864  0.72586507  0.20182564     0.77900
Cd513      Cd  0.91294365  0.72838492  0.20719520     1.37500
O514        O  0.90482876  0.70883677  0.23162064    -0.57100
O515        O  0.94314172  0.72147341  0.21602649    -0.55900
C516        C  0.88718891  0.73081582  0.17927992     0.77900
O517        O  0.94036815  0.73156742  0.18986956    -0.58200
O518        O  0.90591671  0.69670803  0.20627066    -0.56700
O519        O  0.91317422  0.76069914  0.21034376    -0.56700
O520        O  0.88329066  0.73147152  0.19535770    -0.55900
O521        O  0.73623244  0.75704493  0.11263354    -0.57100
C522        C  0.78560455  0.76994996  0.10737198     0.75600
O523        O  0.74571294  0.80027677  0.07324458    -0.58200
C524        C  0.72071809  0.76284712  0.11249243     0.75500
C525        C  0.75106910  0.81180204  0.12513662     0.77900
Cd526      Cd  0.75057587  0.78307515  0.10040452     1.37500
O527        O  0.77228917  0.76003904  0.10725300    -0.57100
O528        O  0.74975555  0.79590486  0.12963661    -0.55900
C529        C  0.74662210  0.78736407  0.06286275     0.77900
O530        O  0.75150351  0.81474373  0.10877898    -0.58200
O531        O  0.78291234  0.78569444  0.10289206    -0.56700
O532        O  0.71875833  0.77800778  0.10589818    -0.56700
O533        O  0.74923071  0.77253062  0.06984246    -0.55900
O534        O  0.78057196  0.88207737  0.24052347    -0.57100
C535        C  0.78841968  0.87253884  0.29220046     0.75600
O536        O  0.83668366  0.87917718  0.26419812    -0.58200
C537        C  0.79037188  0.88162206  0.22714644     0.75500
C538        C  0.80712506  0.92530472  0.26490345     0.77900
Cd539      Cd  0.80486353  0.88746331  0.26153699     1.37500
O540        O  0.78124274  0.87199068  0.27721301    -0.57100
O541        O  0.79271074  0.91711748  0.26505732    -0.55900
C542        C  0.83417405  0.86333536  0.25974215     0.77900
O543        O  0.82072758  0.91592259  0.26317669    -0.58200
O544        O  0.80266706  0.88099897  0.29314716    -0.56700
O545        O  0.80632806  0.88541403  0.22965646    -0.56700
O546        O  0.81847991  0.85917716  0.25630610    -0.55900
O547        O  0.63496232  0.26009535  0.21465435    -0.57100
C548        C  0.63111883  0.26093831  0.26605514     0.75600
O549        O  0.63481004  0.31340183  0.23259432    -0.58200
C550        C  0.64039333  0.27067646  0.20305052     0.75500
C551        C  0.58690579  0.28724313  0.23126213     0.77900
Cd552      Cd  0.62457851  0.28259745  0.23551718     1.37500
O553        O  0.63655946  0.25675563  0.25096577    -0.57100
O554        O  0.59495634  0.27387790  0.22563378    -0.55900
C555        C  0.64745384  0.31188507  0.24330082     0.77900
O556        O  0.59634956  0.29855279  0.23890123    -0.58200
O557        O  0.62124430  0.27428883  0.26673710    -0.56700
O558        O  0.63770053  0.28674930  0.20611487    -0.56700
O559        O  0.64882681  0.29718696  0.25088278    -0.55900
O560        O  0.75219867  0.20602209  0.38488871    -0.57100
C561        C  0.74573992  0.25498281  0.38618149     0.75600
O562        O  0.70562775  0.24094480  0.37839774    -0.58200
C563        C  0.74336817  0.19274582  0.38010567     0.75500
C564        C  0.72390290  0.22068878  0.43327097     0.77900
Cd565      Cd  0.72675977  0.22337634  0.39529336     1.37500
O566        O  0.74660128  0.24103893  0.37719843    -0.57100
O567        O  0.73731971  0.21544069  0.42510535    -0.55900
C568        C  0.69532815  0.22865865  0.37421086     0.77900
O569        O  0.71140580  0.22619826  0.42381370    -0.58200
O570        O  0.73693343  0.25394341  0.40016430    -0.56700
O571        O  0.72707771  0.19341748  0.38312850    -0.56700
O572        O  0.69885427  0.21377930  0.38075462    -0.55900
O573        O  0.80043829  0.37227325  0.26597410    -0.57100
C574        C  0.75337542  0.38158349  0.27225942     0.75600
O575        O  0.79615819  0.36687735  0.31465496    -0.58200
C576        C  0.81547963  0.37131418  0.27302071     0.75500
C577        C  0.79233818  0.42396935  0.29570462     0.77900
Cd578      Cd  0.78603219  0.38678163  0.29089059     1.37500
O579        O  0.76760976  0.37490787  0.26691281    -0.57100
O580        O  0.79372690  0.41647039  0.28100597    -0.55900
C581        C  0.78106574  0.36273957  0.32001992     0.77900
O582        O  0.78806903  0.41427630  0.30847952    -0.58200
O583        O  0.75466177  0.39161387  0.28539959    -0.56700
O584        O  0.81697674  0.37812153  0.28811327    -0.56700
O585        O  0.76848041  0.37075760  0.31276680    -0.55900
O586        O  0.78917071  0.11198257  0.27618063    -0.57100
C587        C  0.79810582  0.10773303  0.22952730     0.75600
O588        O  0.83416247  0.11868329  0.27215590    -0.58200
C589        C  0.79472429  0.11047407  0.29176672     0.75500
C590        C  0.81322073  0.05800259  0.26568420     0.77900
Cd591      Cd  0.81337353  0.09602782  0.26213819     1.37500
O592        O  0.78983444  0.10843657  0.24386756    -0.57100
O593        O  0.80071034  0.06647167  0.25880494    -0.55900
C594        C  0.84503477  0.11687443  0.25982506     0.77900
O595        O  0.82602691  0.06715796  0.27095540    -0.58200
O596        O  0.81297750  0.10036426  0.23002847    -0.56700
O597        O  0.80874887  0.10172964  0.29369694    -0.56700
O598        O  0.84208164  0.10439981  0.24926802    -0.55900
O599        O  0.90489708  0.27172269  0.23132874    -0.57100
C600        C  0.91255609  0.22384133  0.22782902     0.75600
O601        O  0.90004283  0.23560931  0.19019923    -0.58200
C602        C  0.90101211  0.28514886  0.22232929     0.75500
C603        C  0.95630472  0.26162373  0.20495747     0.77900
Cd604      Cd  0.91875326  0.25514126  0.20757198     1.37500
O605        O  0.90640121  0.23861071  0.23231918    -0.57100
O606        O  0.94766137  0.26516422  0.21859358    -0.55900
C607        C  0.89653472  0.24599844  0.17781874     0.77900
O608        O  0.94757737  0.25519281  0.19235484    -0.58200
O609        O  0.92296680  0.22391216  0.21492520    -0.56700
O610        O  0.90579175  0.28494706  0.20644453    -0.56700
O611        O  0.90424895  0.26073224  0.17846141    -0.55900
O612        O  0.77776595  0.22997981  0.10958008    -0.57100
C613        C  0.72761167  0.22495359  0.11646708     0.75600
O614        O  0.75321344  0.18956413  0.07301303    -0.58200
C615        C  0.79130523  0.22190462  0.10432162     0.75500
C616        C  0.76425981  0.17848687  0.12428273     0.77900
Cd617      Cd  0.75690368  0.20702165  0.10032457     1.37500
O618        O  0.74127611  0.23304262  0.11169246    -0.57100
O619        O  0.77302901  0.19249002  0.12362762    -0.55900
C620        C  0.75231165  0.20263099  0.06277311     0.77900
O621        O  0.75133854  0.17738003  0.11379859    -0.58200
O622        O  0.72712482  0.20873221  0.11293711    -0.56700
O623        O  0.78861654  0.20786778  0.09582064    -0.56700
O624        O  0.75277322  0.21750351  0.07005764    -0.55900
C625        C  0.80932175  0.22728625  0.10942907    -0.11200
C626        C  0.81319928  0.24396737  0.11655412     0.04300
C627        C  0.82931867  0.24680548  0.12499406    -0.11800
C628        C  0.84187383  0.23336304  0.12631165     0.19100
C629        C  0.83855268  0.21719987  0.11796222    -0.08800
C630        C  0.82250036  0.21436173  0.10952107    -0.01800
H631        H  0.83173105  0.25932649  0.13126016     0.05600
C632        C  0.85715678  0.23571174  0.13822715     0.21100
H633        H  0.81998072  0.20154821  0.10392303     0.10800
C634        C  0.85875195  0.22458308  0.15279781    -0.15100
C635        C  0.87196234  0.22702968  0.16532345     0.03800
C636        C  0.88368385  0.24142654  0.16378097    -0.10500
C637        C  0.88230839  0.25231104  0.14889938    -0.00500
C638        C  0.86933097  0.24945465  0.13612245    -0.05600
H639        H  0.84938545  0.21405645  0.15463598     0.06800
H640        H  0.89127696  0.26319329  0.14722106     0.10200
Br641      Br  0.85516835  0.19825346  0.11830868    -0.05300
Br642      Br  0.79711854  0.26334385  0.11542748    -0.02300
Br643      Br  0.87240812  0.21033666  0.18429247     0.00600
Br644      Br  0.86899383  0.26440662  0.11585937    -0.03800
C645        C  0.90639285  0.20733149  0.23609849    -0.11200
C646        C  0.91534881  0.19116448  0.23431254     0.04300
C647        C  0.90720862  0.17551360  0.23954777    -0.11800
C648        C  0.89016719  0.17562469  0.24641115     0.19100
C649        C  0.88152884  0.19174509  0.24886476    -0.08800
C650        C  0.88972735  0.20738646  0.24396046    -0.01800
H651        H  0.91396248  0.16316045  0.23776176     0.05600
C652        C  0.88102263  0.15886175  0.24987476     0.21100
H653        H  0.88250152  0.21953378  0.24528571     0.10800
C654        C  0.87775478  0.15374011  0.26723261    -0.15100
C655        C  0.86699604  0.13928550  0.27087358     0.03800
C656        C  0.85937120  0.12966105  0.25696260    -0.10500
C657        C  0.86368877  0.13412738  0.23960868    -0.00500
C658        C  0.87426135  0.14869436  0.23599708    -0.05600
H659        H  0.88308911  0.16137389  0.27794927     0.06800
H660        H  0.85787325  0.12702326  0.22877221     0.10200
Br661      Br  0.85782745  0.19295853  0.25722647    -0.05300
Br662      Br  0.93854660  0.18941466  0.22474452    -0.02300
Br663      Br  0.86320754  0.13337840  0.29505086     0.00600
Br664      Br  0.87765262  0.15522443  0.21190973    -0.03800
C665        C  0.79117292  0.11560887  0.21315114    -0.11200
C666        C  0.78059134  0.13085034  0.21337134     0.04300
C667        C  0.77563870  0.13882438  0.19758804    -0.11800
C668        C  0.78097710  0.13193996  0.18141995     0.19100
C669        C  0.79129839  0.11662879  0.18111450    -0.08800
C670        C  0.79633455  0.10861480  0.19689550    -0.01800
H671        H  0.76799123  0.15079760  0.19792891     0.05600
C672        C  0.77668046  0.14180330  0.16523156     0.21100
H673        H  0.80446134  0.09695822  0.19645602     0.10800
C674        C  0.79017270  0.15052663  0.15633567    -0.15100
C675        C  0.78642625  0.16174485  0.14229508     0.03800
C676        C  0.76882992  0.16462609  0.13709627    -0.10500
C677        C  0.75541472  0.15514571  0.14540935    -0.00500
C678        C  0.75923843  0.14381619  0.15941124    -0.05600
H679        H  0.80360926  0.14891123  0.16058833     0.06800
H680        H  0.74190143  0.15705611  0.14148953     0.10200
Br681      Br  0.79871055  0.10621187  0.15946657    -0.05300
Br682      Br  0.77376590  0.14249699  0.23464165    -0.02300
Br683      Br  0.80600487  0.17234546  0.13050473     0.00600
Br684      Br  0.74029687  0.13139915  0.17032251    -0.03800
C685        C  0.83029345  0.36185567  0.26468775    -0.11200
C686        C  0.83045540  0.35745135  0.24665784     0.04300
C687        C  0.84340247  0.34616040  0.24016590    -0.11800
C688        C  0.85647797  0.33935627  0.25124422     0.19100
C689        C  0.85728734  0.34504702  0.26880138    -0.08800
C690        C  0.84418417  0.35602018  0.27540820    -0.01800
H691        H  0.84301810  0.34233165  0.22651125     0.05600
C692        C  0.86858317  0.32578211  0.24440986     0.21100
H693        H  0.84463406  0.35956739  0.28914801     0.10800
C694        C  0.87990445  0.32985436  0.23050106    -0.15100
C695        C  0.89087383  0.31701817  0.22321422     0.03800
C696        C  0.89065585  0.29971679  0.22996723    -0.10500
C697        C  0.87944336  0.29581113  0.24402766    -0.00500
C698        C  0.86826772  0.30850296  0.25101167    -0.05600
H699        H  0.88014131  0.34305845  0.22525095     0.06800
H700        H  0.87879584  0.28258479  0.24918040     0.10200
Br701      Br  0.87603279  0.33823063  0.28427279    -0.05300
Br702      Br  0.81379404  0.36665083  0.23006225    -0.02300
Br703      Br  0.90608247  0.32416937  0.20449281     0.00600
Br704      Br  0.85180645  0.30106083  0.26854174    -0.03800
C705        C  0.75155787  0.17783486  0.37054932    -0.11200
C706        C  0.74311190  0.16141311  0.36828507     0.04300
C707        C  0.75045151  0.14872929  0.35718029    -0.11800
C708        C  0.76618100  0.15197474  0.34825618     0.19100
C709        C  0.77486666  0.16808892  0.35088825    -0.08800
C710        C  0.76767826  0.18069704  0.36209016    -0.01800
H711        H  0.74367024  0.13638613  0.35520979     0.05600
C712        C  0.77245312  0.13927118  0.33494801     0.21100
H713        H  0.77433152  0.19318725  0.36344108     0.10800
C714        C  0.76269700  0.13709834  0.31947265    -0.15100
C715        C  0.76918311  0.12710919  0.30550561     0.03800
C716        C  0.78593031  0.11912752  0.30686220    -0.10500
C717        C  0.79508085  0.12038760  0.32289653    -0.00500
C718        C  0.78844253  0.13023021  0.33687578    -0.05600
H719        H  0.75018523  0.14368869  0.31803794     0.06800
H720        H  0.80773381  0.11411766  0.32446373     0.10200
Br721      Br  0.79570057  0.17424363  0.33818025    -0.05300
Br722      Br  0.72162506  0.15528338  0.37988052    -0.02300
Br723      Br  0.75431417  0.12508913  0.28518011     0.00600
Br724      Br  0.80174739  0.13105704  0.35828352    -0.03800
C725        C  0.75386235  0.27159474  0.37988617    -0.11200
C726        C  0.75200415  0.28793554  0.38861886     0.04300
C727        C  0.75802642  0.30337189  0.38060194    -0.11800
C728        C  0.76566635  0.30296365  0.36390400     0.19100
C729        C  0.76805962  0.28673918  0.35548794    -0.08800
C730        C  0.76238532  0.27130493  0.36353869    -0.01800
H731        H  0.75616021  0.31583647  0.38711930     0.05600
C732        C  0.76978603  0.31956225  0.35473216     0.21100
H733        H  0.76396307  0.25908567  0.35649879     0.10800
C734        C  0.78729162  0.32384782  0.35114354    -0.15100
C735        C  0.79149468  0.33815046  0.34037667     0.03800
C736        C  0.77791774  0.34877024  0.33329521    -0.10500
C737        C  0.76042811  0.34481810  0.33770838    -0.00500
C738        C  0.75630443  0.33028768  0.34809124    -0.05600
H739        H  0.79770385  0.31553641  0.35612889     0.06800
H740        H  0.74975228  0.35256044  0.33239164     0.10200
Br741      Br  0.77751574  0.28507755  0.33223457    -0.05300
Br742      Br  0.74069775  0.29061354  0.41094822    -0.02300
Br743      Br  0.81593745  0.34137505  0.33517219     0.00600
Br744      Br  0.73197596  0.32465104  0.35138620    -0.03800
C745        C  0.65024026  0.26445044  0.18741140    -0.11200
C746        C  0.65415441  0.27531593  0.17281751     0.04300
C747        C  0.66513776  0.26908409  0.15945879    -0.11800
C748        C  0.67251200  0.25224386  0.16035513     0.19100
C749        C  0.66855245  0.24140790  0.17476612    -0.08800
C750        C  0.65728816  0.24739262  0.18788131    -0.01800
H751        H  0.66830670  0.27757595  0.14852153     0.05600
C752        C  0.68568468  0.24677075  0.14720622     0.21100
H753        H  0.65481432  0.23891388  0.19900077     0.10800
C754        C  0.70229895  0.25465090  0.14756998    -0.15100
C755        C  0.71597310  0.24830589  0.13712721     0.03800
C756        C  0.71311487  0.23366138  0.12605743    -0.10500
C757        C  0.69617377  0.22637348  0.12510926    -0.00500
C758        C  0.68247904  0.23293317  0.13539379    -0.05600
H759        H  0.70484200  0.26533276  0.15658385     0.06800
H760        H  0.69360253  0.21536081  0.11648783     0.10200
Br761      Br  0.67963928  0.21901930  0.17812461    -0.05300
Br762      Br  0.64537318  0.29881946  0.17022593    -0.02300
Br763      Br  0.73846697  0.25936611  0.13994637     0.00600
Br764      Br  0.65965193  0.22256718  0.13297040    -0.03800
C765        C  0.63675499  0.25157228  0.28223489    -0.11200
C766        C  0.65310130  0.24279754  0.28336865     0.04300
C767        C  0.65934242  0.23701034  0.29966007    -0.11800
C768        C  0.64962084  0.23957768  0.31501839     0.19100
C769        C  0.63288376  0.24728713  0.31380764    -0.08800
C770        C  0.62661199  0.25324994  0.29754453    -0.01800
H771        H  0.67229925  0.23121454  0.30048353     0.05600
C772        C  0.65827170  0.23610814  0.33214400     0.21100
H773        H  0.61397223  0.25971316  0.29697711     0.10800
C774        C  0.66324417  0.25042976  0.34258860    -0.15100
C775        C  0.67436626  0.24821420  0.35708439     0.03800
C776        C  0.68084120  0.23131466  0.36135143    -0.10500
C777        C  0.67477816  0.21683217  0.35159033    -0.00500
C778        C  0.66368749  0.21913571  0.33705223    -0.05600
H779        H  0.65909408  0.26352936  0.33896763     0.06800
H780        H  0.67940416  0.20375018  0.35466146     0.10200
Br781      Br  0.61830241  0.25013147  0.33405676    -0.05300
Br782      Br  0.66858509  0.23977493  0.26375497    -0.02300
Br783      Br  0.68031299  0.26894970  0.37017432     0.00600
Br784      Br  0.65667884  0.19883275  0.32390091    -0.03800
C785        C  0.66037661  0.32608178  0.24667441    -0.11200
C786        C  0.66388599  0.33961181  0.23441515     0.04300
C787        C  0.67784725  0.35124946  0.23737629    -0.11800
C788        C  0.68836555  0.34973209  0.25240851     0.19100
C789        C  0.68443070  0.33682365  0.26498634    -0.08800
C790        C  0.67060402  0.32514670  0.26205066    -0.01800
H791        H  0.68088183  0.36114726  0.22765308     0.05600
C792        C  0.70428665  0.36061138  0.25434541     0.21100
H793        H  0.66813824  0.31498712  0.27168644     0.10800
C794        C  0.70425182  0.37473211  0.26608046    -0.15100
C795        C  0.71995324  0.38290049  0.27108884     0.03800
C796        C  0.73615512  0.37669379  0.26440289    -0.10500
C797        C  0.73582740  0.36358300  0.25139045    -0.00500
C798        C  0.72009524  0.35554317  0.24639141    -0.05600
H799        H  0.69204689  0.37882064  0.27204074     0.06800
H800        H  0.74793760  0.35876151  0.24581506     0.10200
Br801      Br  0.69827565  0.33403120  0.28592048    -0.05300
Br802      Br  0.65121828  0.34222173  0.21274703    -0.02300
Br803      Br  0.71802442  0.40175396  0.28770685     0.00600
Br804      Br  0.72100168  0.33655837  0.22987462    -0.03800
C805        C  0.80810286  0.94474945  0.26633720    -0.11200
C806        C  0.79404745  0.95501836  0.27279501     0.04300
C807        C  0.79559329  0.97330573  0.27349273    -0.11800
C808        C  0.81066515  0.98184808  0.26735308     0.19100
C809        C  0.82475135  0.97169757  0.26106059    -0.08800
C810        C  0.82344886  0.95335541  0.26075665    -0.01800
H811        H  0.78481348  0.98096605  0.27857309     0.05600
C812        C  0.81116302  0.00132984  0.26721471     0.21100
H813        H  0.83432484  0.94584225  0.25565639     0.10800
C814        C  0.82376994  0.01024285  0.27729866    -0.15100
C815        C  0.82469708  0.02863233  0.27727047     0.03800
C816        C  0.81274005  0.03850969  0.26696809    -0.10500
C817        C  0.79984733  0.02946469  0.25728265    -0.00500
C818        C  0.79898501  0.01114431  0.25731777    -0.05600
H819        H  0.83292302  0.00282997  0.28527403     0.06800
H820        H  0.79049350  0.03664183  0.24933587     0.10200
Br821      Br  0.84562869  0.98223484  0.25175123    -0.05300
Br822      Br  0.77232350  0.94528270  0.28103322    -0.02300
Br823      Br  0.84225758  0.03911959  0.29205653     0.00600
Br824      Br  0.78129482  0.00023539  0.24298915    -0.03800
C825        C  0.75303475  0.82595224  0.13834467    -0.11200
C826        C  0.74753783  0.82373171  0.15591403     0.04300
C827        C  0.75208223  0.83619377  0.16856714    -0.11800
C828        C  0.76211177  0.85096269  0.16419513     0.19100
C829        C  0.76695199  0.85366698  0.14658753    -0.08800
C830        C  0.76222758  0.84131349  0.13379303    -0.01800
H831        H  0.74844634  0.83393091  0.18208312     0.05600
C832        C  0.76939519  0.86170334  0.17865682     0.21100
H833        H  0.76657677  0.84329061  0.12043656     0.10800
C834        C  0.78741062  0.86051758  0.18213283    -0.15100
C835        C  0.79461557  0.86748580  0.19749138     0.03800
C836        C  0.78367997  0.87609414  0.20973987    -0.10500
C837        C  0.76569629  0.87786022  0.20589456    -0.00500
C838        C  0.75852408  0.87072141  0.19051936    -0.05600
H839        H  0.79575472  0.85318875  0.17334175     0.06800
H840        H  0.75710123  0.88438360  0.21508867     0.10200
Br841      Br  0.78058850  0.87365014  0.13959042    -0.05300
Br842      Br  0.73408247  0.80392699  0.16381934    -0.02300
Br843      Br  0.81903986  0.86264177  0.20167156     0.00600
Br844      Br  0.73378069  0.87314916  0.18644575    -0.03800
C845        C  0.90153043  0.77810342  0.23389303    -0.11200
C846        C  0.89713824  0.77961191  0.25186863     0.04300
C847        C  0.88943791  0.79510295  0.25812369    -0.11800
C848        C  0.88549567  0.80904517  0.24671773     0.19100
C849        C  0.89094999  0.80803144  0.22912538    -0.08800
C850        C  0.89908821  0.79279771  0.22295132    -0.01800
H851        H  0.88539410  0.79581543  0.27169554     0.05600
C852        C  0.87316178  0.82296837  0.25243299     0.21100
H853        H  0.90235877  0.79204844  0.20917200     0.10800
C854        C  0.87854688  0.84059387  0.25339286    -0.15100
C855        C  0.86634280  0.85409689  0.25643530     0.03800
C856        C  0.84834587  0.84996590  0.25847029    -0.10500
C857        C  0.84329881  0.83221159  0.25831541    -0.00500
C858        C  0.85541972  0.81884570  0.25537921    -0.05600
H859        H  0.89218652  0.84389021  0.25118712     0.06800
H860        H  0.82965850  0.82862212  0.26007975     0.10200
Br861      Br  0.88566828  0.82617763  0.21243009    -0.05300
Br862      Br  0.90041184  0.76092960  0.26850043    -0.02300
Br863      Br  0.87502593  0.87775426  0.25651508     0.00600
Br864      Br  0.84667726  0.79520848  0.25426890    -0.03800
C865        C  0.80303832  0.76340483  0.11319726    -0.11200
C866        C  0.81603597  0.77459460  0.12042486     0.04300
C867        C  0.83103911  0.76736313  0.12825875    -0.11800
C868        C  0.83346668  0.74913135  0.12911548     0.19100
C869        C  0.82103170  0.73803200  0.12113636    -0.08800
C870        C  0.80603108  0.74517939  0.11327048    -0.01800
H871        H  0.84042750  0.77598557  0.13455400     0.05600
C872        C  0.84766543  0.74209458  0.14045072     0.21100
H873        H  0.79638244  0.73635683  0.10767079     0.10800
C874        C  0.84304626  0.73365343  0.15611936    -0.15100
C875        C  0.85579787  0.72893397  0.16848204     0.03800
C876        C  0.87363836  0.73297650  0.16542396    -0.10500
C877        C  0.87834504  0.74047075  0.14923362    -0.00500
C878        C  0.86551886  0.74504731  0.13680673    -0.05600
H879        H  0.82938360  0.73114175  0.15895626     0.06800
H880        H  0.89194585  0.74341038  0.14649232     0.10200
Br881      Br  0.82377602  0.71300263  0.12103813    -0.05300
Br882      Br  0.81356086  0.79966695  0.12182790    -0.02300
Br883      Br  0.84787358  0.71666596  0.18902356     0.00600
Br884      Br  0.87290965  0.75535315  0.11509210    -0.03800
C885        C  0.70581540  0.75292163  0.12032078    -0.11200
C886        C  0.70825268  0.73719346  0.13000417     0.04300
C887        C  0.69428423  0.72999860  0.13943285    -0.11800
C888        C  0.67765315  0.73784281  0.13932552     0.19100
C889        C  0.67483238  0.75273299  0.12870452    -0.08800
C890        C  0.68881804  0.76012367  0.11936408    -0.01800
H891        H  0.69667862  0.71864681  0.14765987     0.05600
C892        C  0.66459983  0.73186861  0.15247833     0.21100
H893        H  0.68645870  0.77191895  0.11178987     0.10800
C894        C  0.65951587  0.74365635  0.16562239    -0.15100
C895        C  0.65014737  0.73802344  0.18031944     0.03800
C896        C  0.64600532  0.72001488  0.18238154    -0.10500
C897        C  0.65005571  0.70842512  0.16856820    -0.00500
C898        C  0.65922497  0.71420835  0.15372091    -0.05600
H899        H  0.66355924  0.75726028  0.16485469     0.06800
H900        H  0.64670606  0.69465303  0.16957534     0.10200
Br901      Br  0.65221350  0.76365741  0.12681744    -0.05300
Br902      Br  0.73028938  0.72507468  0.13208451    -0.02300
Br903      Br  0.64388910  0.75584685  0.19698291     0.00600
Br904      Br  0.66439715  0.69748150  0.13562866    -0.03800
C905        C  0.79364555  0.53652468  0.29489115    -0.11200
C906        C  0.78083927  0.52568345  0.28686912     0.04300
C907        C  0.78207281  0.50742103  0.28829850    -0.11800
C908        C  0.79588495  0.49953362  0.29755527     0.19100
C909        C  0.80882123  0.51019736  0.30534411    -0.08800
C910        C  0.80753324  0.52853630  0.30414311    -0.01800
H911        H  0.77211549  0.49929409  0.28225778     0.05600
C912        C  0.79634681  0.48014124  0.29881125     0.21100
H913        H  0.81751994  0.53655161  0.31028773     0.10800
C914        C  0.80818004  0.47070091  0.28841032    -0.15100
C915        C  0.80749156  0.45234025  0.28767035     0.03800
C916        C  0.79488700  0.44311931  0.29761494    -0.10500
C917        C  0.78362608  0.45257016  0.30867675    -0.00500
C918        C  0.78411556  0.47094013  0.30913763    -0.05600
H919        H  0.81762701  0.47766532  0.28045927     0.06800
H920        H  0.77387770  0.44571840  0.31635615     0.10200
Br921      Br  0.82828500  0.50026103  0.31790414    -0.05300
Br922      Br  0.76072865  0.53473519  0.27457758    -0.02300
Br923      Br  0.82423599  0.44058480  0.27303118     0.00600
Br924      Br  0.76742636  0.48298074  0.32357367    -0.03800
C925        C  0.83332929  0.61781613  0.26240599    -0.11200
C926        C  0.83003394  0.63107177  0.24975243     0.04300
C927        C  0.84396531  0.64074884  0.24282956    -0.11800
C928        C  0.86130353  0.63763093  0.24812643     0.19100
C929        C  0.86474488  0.62419709  0.26033570    -0.08800
C930        C  0.85083610  0.61443986  0.26735806    -0.01800
H931        H  0.84118937  0.65125699  0.23366219     0.05600
C932        C  0.87507891  0.64986502  0.24194784     0.21100
H933        H  0.85373683  0.60434991  0.27694078     0.10800
C934        C  0.88228569  0.66189928  0.25386912    -0.15100
C935        C  0.89227359  0.67619327  0.24806226     0.03800
C936        C  0.89517928  0.67865825  0.22986554    -0.10500
C937        C  0.88911729  0.66570093  0.21814565    -0.00500
C938        C  0.87904804  0.65151903  0.22401502    -0.05600
H939        H  0.87931496  0.66071086  0.26769100     0.06800
H940        H  0.89134646  0.66706282  0.20420153     0.10200
Br941      Br  0.88819007  0.61870365  0.26772274    -0.05300
Br942      Br  0.80696287  0.63788945  0.24207281    -0.02300
Br943      Br  0.90077344  0.69197821  0.26581867     0.00600
Br944      Br  0.87024257  0.63519676  0.20695240    -0.03800
C945        C  0.66559698  0.65620404  0.23981286    -0.11200
C946        C  0.68314297  0.65785786  0.23404674     0.04300
C947        C  0.69591634  0.64616827  0.24011255    -0.11800
C948        C  0.69166307  0.63269112  0.25187094     0.19100
C949        C  0.67410572  0.63053264  0.25710715    -0.08800
C950        C  0.66120620  0.64215111  0.25096186    -0.01800
H951        H  0.70937829  0.64791215  0.23602819     0.05600
C952        C  0.70612412  0.62218461  0.25953059     0.21100
H953        H  0.64787731  0.64064883  0.25555879     0.10800
C954        C  0.71069807  0.62483032  0.27715889    -0.15100
C955        C  0.72600783  0.61749554  0.28422597     0.03800
C956        C  0.73719026  0.60732827  0.27345362    -0.10500
C957        C  0.73212584  0.60410511  0.25598517    -0.00500
C958        C  0.71672680  0.61136378  0.24903523    -0.05600
H959        H  0.70272891  0.63332517  0.28524545     0.06800
H960        H  0.74036873  0.59621317  0.24756079     0.10200
Br961      Br  0.66727057  0.61212937  0.27285558    -0.05300
Br962      Br  0.69075890  0.67570881  0.21793173    -0.02300
Br963      Br  0.73146882  0.62345702  0.30813969     0.00600
Br964      Br  0.71075231  0.60636597  0.22507887    -0.03800
C965        C  0.78109122  0.86273319  0.30733818    -0.11200
C966        C  0.78686915  0.86539469  0.32481696     0.04300
C967        C  0.78136997  0.85396652  0.33811803    -0.11800
C968        C  0.77008355  0.83992984  0.33439052     0.19100
C969        C  0.76364075  0.83774254  0.31721876    -0.08800
C970        C  0.76908939  0.84910459  0.30391414    -0.01800
H971        H  0.78609201  0.85587914  0.35138203     0.05600
C972        C  0.76541734  0.82736062  0.34837591     0.21100
H973        H  0.76445704  0.84675700  0.29068747     0.10800
C974        C  0.74833587  0.82738140  0.35503820    -0.15100
C975        C  0.74274737  0.81433218  0.36667372     0.03800
C976        C  0.75452135  0.80088719  0.37195354    -0.10500
C977        C  0.77193801  0.80153142  0.36586881    -0.00500
C978        C  0.77739809  0.81456083  0.35416333    -0.05600
H979        H  0.73911312  0.83726090  0.35063676     0.06800
H980        H  0.78123135  0.79147843  0.36966638     0.10200
Br981      Br  0.74824731  0.81872487  0.31108397    -0.05300
Br982      Br  0.80199689  0.88438225  0.33163868    -0.02300
Br983      Br  0.71857913  0.81544437  0.37368535     0.00600
Br984      Br  0.80097574  0.81359431  0.34544886    -0.03800
C985        C  0.78732360  0.63171225  0.33431051    -0.11200
C986        C  0.78950631  0.62834631  0.35246172     0.04300
C987        C  0.78652643  0.64182195  0.36468993    -0.11800
C988        C  0.78126966  0.65859545  0.35912624     0.19100
C989        C  0.77927314  0.66194851  0.34108542    -0.08800
C990        C  0.78241651  0.64868825  0.32895604    -0.01800
H991        H  0.78810404  0.63917088  0.37857029     0.05600
C992        C  0.77704164  0.67254150  0.37191174     0.21100
H993        H  0.78044708  0.65163921  0.31517110     0.10800
C994        C  0.78736943  0.68776284  0.37214112    -0.15100
C995        C  0.78108346  0.70335520  0.37949426     0.03800
C996        C  0.76424670  0.70369944  0.38734181    -0.10500
C997        C  0.75484235  0.68783455  0.38874012    -0.00500
C998        C  0.76103402  0.67239615  0.38100199    -0.05600
H999        H  0.79970005  0.68791810  0.36515611     0.06800
H1000       H  0.74206781  0.68762901  0.39485720     0.10200
Br1001     Br  0.77116965  0.68418994  0.33227740    -0.05300
Br1002     Br  0.79673730  0.60593762  0.36144167    -0.02300
Br1003     Br  0.79554025  0.72378349  0.37630297     0.00600
Br1004     Br  0.74620853  0.65203057  0.38140089    -0.03800
C1005       C  0.69523330  0.74441491  0.35752996    -0.11200
C1006       C  0.67919978  0.73551605  0.36042211     0.04300
C1007       C  0.66800988  0.73189959  0.34620878    -0.11800
C1008       C  0.67264988  0.73662506  0.32902374     0.19100
C1009       C  0.68842931  0.74574845  0.32620499    -0.08800
C1010       C  0.69938364  0.74973271  0.34035686    -0.01800
H1011       H  0.65597305  0.72470255  0.34845382     0.05600
C1012       C  0.66181245  0.73062768  0.31399619     0.21100
H1013       H  0.71158543  0.75653696  0.33774808     0.10800
C1014       C  0.65310746  0.74296044  0.30337453    -0.15100
C1015       C  0.64435702  0.73774851  0.28799947     0.03800
C1016       C  0.64412784  0.71986068  0.28312188    -0.10500
C1017       C  0.65223037  0.70751384  0.29423921    -0.00500
C1018       C  0.66111144  0.71274525  0.30943611    -0.05600
H1019       H  0.65346325  0.75670833  0.30686153     0.06800
H1020       H  0.65236953  0.69376320  0.29070025     0.10200
Br1021     Br  0.69649147  0.75162083  0.30310114    -0.05300
Br1022     Br  0.67243653  0.72649492  0.38294020    -0.02300
Br1023     Br  0.63268738  0.75557323  0.27452640     0.00600
Br1024     Br  0.67327791  0.69509134  0.32275190    -0.03800
C1025       C  0.96968311  0.72489425  0.19957049    -0.11200
C1026       C  0.97997972  0.71235832  0.20861125     0.04300
C1027       C  0.99826077  0.71294616  0.20742312    -0.11800
C1028       C  0.00658952  0.72577834  0.19726599     0.19100
C1029       C  0.99641884  0.73781720  0.18762491    -0.08800
C1030       C  0.97808698  0.73728509  0.18878145    -0.01800
H1031       H  0.00604172  0.70348014  0.21459918     0.05600
C1032       C  0.02591702  0.72669513  0.19750922     0.21100
H1033       H  0.97044314  0.74693729  0.18171227     0.10800
C1034       C  0.03548160  0.72010907  0.18330993    -0.15100
C1035       C  0.05386462  0.72007921  0.18357802     0.03800
C1036       C  0.06296700  0.72680262  0.19836673    -0.10500
C1037       C  0.05317795  0.73345892  0.21250319    -0.00500
C1038       C  0.03487327  0.73343830  0.21216330    -0.05600
H1039       H  0.02859353  0.71476402  0.17207864     0.06800
H1040       H  0.05975272  0.73879718  0.22393067     0.10200
Br1041     Br  0.00708118  0.75567654  0.17345119    -0.05300
Br1042     Br  0.97000517  0.69365981  0.22223890    -0.02300
Br1043     Br  0.06536168  0.71008765  0.16354994     0.00600
Br1044     Br  0.02261382  0.74296285  0.23194697    -0.03800
C1045       C  0.13582545  0.77893186  0.22712476    -0.11200
C1046       C  0.14646181  0.79094828  0.21781653     0.04300
C1047       C  0.15321838  0.80568509  0.22637589    -0.11800
C1048       C  0.14964544  0.80880135  0.24410930     0.19100
C1049       C  0.13847620  0.79733164  0.25324476    -0.08800
C1050       C  0.13175329  0.78245582  0.24477459    -0.01800
H1051       H  0.16189287  0.81443535  0.21933458     0.05600
C1052       C  0.15905832  0.82330288  0.25286523     0.21100
H1053       H  0.12347677  0.77354175  0.25205540     0.10800
C1054       C  0.15500014  0.84067412  0.24834143    -0.15100
C1055       C  0.16606892  0.85453952  0.25322316     0.03800
C1056       C  0.18171674  0.85097236  0.26265078    -0.10500
C1057       C  0.18491134  0.83365136  0.26827717    -0.00500
C1058       C  0.17385990  0.81988939  0.26337802    -0.05600
H1059       H  0.14360551  0.84334483  0.24021611     0.06800
H1060       H  0.19666584  0.83054008  0.27569697     0.10200
Br1061     Br  0.13224761  0.80144331  0.27725300    -0.05300
Br1062     Br  0.15370857  0.78745730  0.19393476    -0.02300
Br1063     Br  0.15947467  0.87757906  0.24537441     0.00600
Br1064     Br  0.18068754  0.79645368  0.26973161    -0.03800
C1065       C  0.26815213  0.82030969  0.13891032    -0.11200
C1066       C  0.28061269  0.83199485  0.14617226     0.04300
C1067       C  0.27572487  0.84321528  0.15988036    -0.11800
C1068       C  0.25853401  0.84315741  0.16643736     0.19100
C1069       C  0.24579522  0.83252850  0.15826265    -0.08800
C1070       C  0.25069571  0.82115319  0.14475969    -0.01800
H1071       H  0.28554635  0.85150344  0.16595735     0.05600
C1072       C  0.25451171  0.85294216  0.18273514     0.21100
H1073       H  0.24088453  0.81251031  0.13917170     0.10800
C1074       C  0.24256957  0.86695153  0.18234422    -0.15100
C1075       C  0.23744752  0.87539710  0.19785025     0.03800
C1076       C  0.24470263  0.87008147  0.21414033    -0.10500
C1077       C  0.25716606  0.85648001  0.21430474    -0.00500
C1078       C  0.26188533  0.84778981  0.19890331    -0.05600
H1079       H  0.23690270  0.87103485  0.16997762     0.06800
H1080       H  0.26271000  0.85197653  0.22658795     0.10200
Br1081     Br  0.22179848  0.83208084  0.16583889    -0.05300
Br1082     Br  0.30478781  0.83223473  0.13921331    -0.02300
Br1083     Br  0.22054631  0.89396347  0.19564994     0.00600
Br1084     Br  0.27735146  0.82798567  0.20094948    -0.03800
C1085       C  0.23540975  0.74494154  0.11358104    -0.11200
C1086       C  0.21979665  0.74664014  0.10365384     0.04300
C1087       C  0.20371399  0.74184135  0.11108314    -0.11800
C1088       C  0.20298190  0.73510027  0.12818172     0.19100
C1089       C  0.21867995  0.73165708  0.13731502    -0.08800
C1090       C  0.23471871  0.73648786  0.12995918    -0.01800
H1091       H  0.19168856  0.74409693  0.10382706     0.05600
C1092       C  0.18592047  0.73370998  0.13716447     0.21100
H1093       H  0.24652998  0.73484276  0.13772251     0.10800
C1094       C  0.17860462  0.71716629  0.14046929    -0.15100
C1095       C  0.16375869  0.71544954  0.15112733     0.03800
C1096       C  0.15608984  0.73054160  0.15875178    -0.10500
C1097       C  0.16285978  0.74714926  0.15440864    -0.00500
C1098       C  0.17767479  0.74880857  0.14382314    -0.05600
H1099       H  0.18477364  0.70555888  0.13518932     0.06800
H1100       H  0.15724695  0.75888207  0.16003765     0.10200
Br1101     Br  0.21878766  0.72214851  0.16064642    -0.05300
Br1102     Br  0.21950884  0.75552136  0.08007171    -0.02300
Br1103     Br  0.15474019  0.69216960  0.15459313     0.00600
Br1104     Br  0.18702689  0.77192153  0.14008213    -0.03800
C1105       C  0.25402107  0.86510069  0.31075377    -0.11200
C1106       C  0.24711344  0.86467869  0.32798472     0.04300
C1107       C  0.25416120  0.85308672  0.34044348    -0.11800
C1108       C  0.26828130  0.84211167  0.33625468     0.19100
C1109       C  0.27586374  0.84325778  0.31948865    -0.08800
C1110       C  0.26878716  0.85469193  0.30697971    -0.01800
H1111       H  0.24843414  0.85243601  0.35341399     0.05600
C1112       C  0.27417741  0.82870862  0.34904104     0.21100
H1113       H  0.27440414  0.85476069  0.29394758     0.10800
C1114       C  0.26372341  0.81382684  0.35178524    -0.15100
C1115       C  0.26953706  0.79998960  0.36243789     0.03800
C1116       C  0.28629182  0.80090507  0.37053488    -0.10500
C1117       C  0.29631887  0.81628398  0.36834810    -0.00500
C1118       C  0.29033954  0.83013221  0.35784689    -0.05600
H1119       H  0.25117554  0.81274857  0.34515959     0.06800
H1120       H  0.30904025  0.81747565  0.37459801     0.10200
Br1121     Br  0.29510102  0.82855553  0.31260275    -0.05300
Br1122     Br  0.22822395  0.87948088  0.33559612    -0.02300
Br1123     Br  0.25417210  0.78006567  0.36433974     0.00600
Br1124     Br  0.30466913  0.85073688  0.35582627    -0.03800
C1125       C  0.47692522  0.69843957  0.22976507    -0.11200
C1126       C  0.48769139  0.71224881  0.23608665     0.04300
C1127       C  0.50593438  0.71113112  0.23454837    -0.11800
C1128       C  0.51395594  0.69656162  0.22672610     0.19100
C1129       C  0.50331633  0.68274376  0.22048926    -0.08800
C1130       C  0.48502114  0.68377915  0.22202655    -0.01800
H1131       H  0.51396611  0.72157862  0.23982197     0.05600
C1132       C  0.53343413  0.69574014  0.22627285     0.21100
H1133       H  0.47711124  0.67306339  0.21710091     0.10800
C1134       C  0.54212366  0.68225413  0.23537817    -0.15100
C1135       C  0.56046939  0.68175200  0.23644014     0.03800
C1136       C  0.57052977  0.69518650  0.22857976    -0.10500
C1137       C  0.56180527  0.70863731  0.21941237    -0.00500
C1138       C  0.54349083  0.70894202  0.21809294    -0.05600
H1139       H  0.53457066  0.67227433  0.24206236     0.06800
H1140       H  0.56927330  0.71895271  0.21313892     0.10200
Br1141     Br  0.51304024  0.66230464  0.20948480    -0.05300
Br1142     Br  0.47881718  0.73264032  0.24796360    -0.02300
Br1143     Br  0.57074517  0.66304678  0.24987464     0.00600
Br1144     Br  0.53294931  0.72752142  0.20466062    -0.03800
C1145       C  0.39368980  0.72682368  0.19285356    -0.11200
C1146       C  0.39619186  0.72304577  0.17485537     0.04300
C1147       C  0.38421295  0.72942956  0.16236727    -0.11800
C1148       C  0.36988837  0.73973735  0.16750055     0.19100
C1149       C  0.36802491  0.74439281  0.18522541    -0.08800
C1150       C  0.37985177  0.73799647  0.19768928    -0.01800
H1151       H  0.38586928  0.72607456  0.14868005     0.05600
C1152       C  0.35623491  0.74461448  0.15460204     0.21100
H1153       H  0.37772860  0.74123490  0.21134371     0.10800
C1154       C  0.34054400  0.73506244  0.15438893    -0.15100
C1155       C  0.32639264  0.74030870  0.14390446     0.03800
C1156       C  0.32787606  0.75544469  0.13318054    -0.10500
C1157       C  0.34387343  0.76471486  0.13313867    -0.00500
C1158       C  0.35797864  0.75939254  0.14372022    -0.05600
H1159       H  0.33910521  0.72379475  0.16292040     0.06800
H1160       H  0.34534463  0.77630774  0.12508249     0.10200
Br1161     Br  0.34916325  0.75906827  0.19308304    -0.05300
Br1162     Br  0.41578480  0.70970890  0.16639363    -0.02300
Br1163     Br  0.30516762  0.72687699  0.14624227     0.00600
Br1164     Br  0.37908831  0.77309336  0.14360595    -0.03800
C1165       C  0.40634683  0.72471832  0.28600122    -0.11200
C1166       C  0.41323816  0.71916054  0.30235401     0.04300
C1167       C  0.40485320  0.72403336  0.31792129    -0.11800
C1168       C  0.38977312  0.73455139  0.31756124     0.19100
C1169       C  0.38376735  0.74128644  0.30140954    -0.08800
C1170       C  0.39205089  0.73637380  0.28584738    -0.01800
H1171       H  0.40983313  0.71923392  0.33033552     0.05600
C1172       C  0.37983263  0.73754879  0.33391915     0.21100
H1173       H  0.38664781  0.74097330  0.27352622     0.10800
C1174       C  0.37893489  0.75448686  0.34100134    -0.15100
C1175       C  0.36786404  0.75818533  0.35513960     0.03800
C1176       C  0.35733256  0.74472191  0.36241069    -0.10500
C1177       C  0.35928238  0.72750048  0.35604811    -0.00500
C1178       C  0.37035365  0.72385862  0.34191841    -0.05600
H1179       H  0.38650416  0.76497235  0.33516501     0.06800
H1180       H  0.35145710  0.71694309  0.36141720     0.10200
Br1181     Br  0.36346901  0.75612245  0.29970919    -0.05300
Br1182     Br  0.43405077  0.70510579  0.30452171    -0.02300
Br1183     Br  0.36788335  0.78189463  0.36368899     0.00600
Br1184     Br  0.37095808  0.70023308  0.33314168    -0.03800
C1185       C  0.20793031  0.62534509  0.26374062    -0.11200
C1186       C  0.19159016  0.62684775  0.27237166     0.04300
C1187       C  0.17869387  0.63809708  0.26563402    -0.11800
C1188       C  0.18174855  0.64795708  0.25042702     0.19100
C1189       C  0.19796471  0.64645248  0.24179166    -0.08800
C1190       C  0.21075746  0.63506681  0.24833132    -0.01800
H1191       H  0.16624963  0.63925618  0.27234126     0.05600
C1192       C  0.16824572  0.66040077  0.24422759     0.21100
H1193       H  0.22326570  0.63437874  0.24168639     0.10800
C1194       C  0.16489355  0.67553077  0.25409072    -0.15100
C1195       C  0.15334447  0.68840869  0.24790377     0.03800
C1196       C  0.14523641  0.68638450  0.23129118    -0.10500
C1197       C  0.14775551  0.67060401  0.22204662    -0.00500
C1198       C  0.15900863  0.65760148  0.22848060    -0.05600
H1199       H  0.17152498  0.67745512  0.26652230     0.06800
H1200       H  0.14139182  0.66854485  0.20949782     0.10200
Br1201     Br  0.20377964  0.66055373  0.22174126    -0.05300
Br1202     Br  0.18574206  0.61375317  0.29307592    -0.02300
Br1203     Br  0.14896612  0.70802471  0.26310468     0.00600
Br1204     Br  0.16134511  0.63620134  0.21542079    -0.03800
C1205       C  0.30249508  0.61200692  0.25882644    -0.11200
C1206       C  0.30410068  0.62593744  0.24660811     0.04300
C1207       C  0.32070583  0.63270821  0.24265867    -0.11800
C1208       C  0.33590216  0.62586823  0.25052089     0.19100
C1209       C  0.33444356  0.61137423  0.26185563    -0.08800
C1210       C  0.31790893  0.60451161  0.26579534    -0.01800
H1211       H  0.32171935  0.64387431  0.23389957     0.05600
C1212       C  0.35273487  0.63530785  0.24820721     0.21100
H1213       H  0.31713410  0.59374154  0.27504675     0.10800
C1214       C  0.35981305  0.64443179  0.26255383    -0.15100
C1215       C  0.37434734  0.65547025  0.26057217     0.03800
C1216       C  0.38226995  0.65737648  0.24391995    -0.10500
C1217       C  0.37539718  0.64786264  0.22965620    -0.00500
C1218       C  0.36075831  0.63692409  0.23168285    -0.05600
H1219       H  0.35344989  0.64361673  0.27521510     0.06800
H1220       H  0.38119595  0.64923647  0.21678014     0.10200
Br1221     Br  0.35459957  0.60083072  0.27271556    -0.05300
Br1222     Br  0.28443732  0.63684485  0.23511406    -0.02300
Br1223     Br  0.38115959  0.66913332  0.28067533     0.00600
Br1224     Br  0.35198975  0.62465554  0.21149953    -0.03800
C1225       C  0.26386127  0.63050399  0.33077721    -0.11200
C1226       C  0.28093190  0.63623624  0.33526055     0.04300
C1227       C  0.28309174  0.65057143  0.34646734    -0.11800
C1228       C  0.26852319  0.65931396  0.35343988     0.19100
C1229       C  0.25156856  0.65287530  0.35000625    -0.08800
C1230       C  0.24934245  0.63847318  0.33883725    -0.01800
H1231       H  0.29616572  0.65534040  0.34923267     0.05600
C1232       C  0.27148024  0.67603198  0.36275849     0.21100
H1233       H  0.23617596  0.63419187  0.33565855     0.10800
C1234       C  0.26727432  0.69179422  0.35424084    -0.15100
C1235       C  0.27273127  0.70795539  0.36107301     0.03800
C1236       C  0.28289951  0.70843764  0.37668110    -0.10500
C1237       C  0.28599082  0.69260964  0.38573362    -0.00500
C1238       C  0.28038564  0.67653660  0.37889985    -0.05600
H1239       H  0.26027565  0.69146632  0.34184873     0.06800
H1240       H  0.29341158  0.69258598  0.39787831     0.10200
Br1241     Br  0.23113191  0.66368825  0.35982575    -0.05300
Br1242     Br  0.30185098  0.62526844  0.32648834    -0.02300
Br1243     Br  0.26589407  0.72853220  0.34813396     0.00600
Br1244     Br  0.28550041  0.65551628  0.39180763    -0.03800
C1245       C  0.85275969  0.13196197  0.74270230    -0.11200
C1246       C  0.87114893  0.12949377  0.74226986     0.04300
C1247       C  0.88239418  0.14353505  0.74636316    -0.11800
C1248       C  0.87560697  0.15998481  0.75106961     0.19100
C1249       C  0.85734460  0.16234214  0.75180935    -0.08800
C1250       C  0.84615277  0.14850690  0.74751863    -0.01800
H1251       H  0.89647628  0.14164109  0.74585137     0.05600
C1252       C  0.88745756  0.17472275  0.75541479     0.21100
H1253       H  0.83212817  0.15067923  0.74826221     0.10800
C1254       C  0.88932261  0.18853231  0.74340141    -0.15100
C1255       C  0.89750948  0.20426662  0.74828358     0.03800
C1256       C  0.90393235  0.20637775  0.76562243    -0.10500
C1257       C  0.90319295  0.19191797  0.77713831    -0.00500
C1258       C  0.89498901  0.17625214  0.77218583    -0.05600
H1259       H  0.88366930  0.18733728  0.73039433     0.06800
H1260       H  0.90806048  0.19307519  0.79040105     0.10200
Br1261     Br  0.84706230  0.18410611  0.75926338    -0.05300
Br1262     Br  0.88174862  0.10765667  0.73561876    -0.02300
Br1263     Br  0.89896235  0.22223988  0.73065614     0.00600
Br1264     Br  0.89297036  0.15788167  0.78928974    -0.03800
C1265       C  0.75079880  0.18980959  0.95061831    -0.11200
C1266       C  0.76381201  0.18196037  0.96135861     0.04300
C1267       C  0.76266466  0.18330904  0.97963684    -0.11800
C1268       C  0.74878927  0.19237285  0.98753677     0.19100
C1269       C  0.73561384  0.19981981  0.97693927    -0.08800
C1270       C  0.73667864  0.19849716  0.95867434    -0.01800
H1271       H  0.77294195  0.17773075  0.98773628     0.05600
C1272       C  0.74897785  0.19495685  0.00675782     0.21100
H1273       H  0.72654660  0.20453960  0.95074311     0.10800
C1274       C  0.75326707  0.21153138  0.01345640    -0.15100
C1275       C  0.75433651  0.21444579  0.03155358     0.03800
C1276       C  0.75094736  0.20050826  0.04341645    -0.10500
C1277       C  0.74661929  0.18389588  0.03654469    -0.00500
C1278       C  0.74564971  0.18106486  0.01841725    -0.05600
H1279       H  0.75608649  0.22219005  0.00451770     0.06800
H1280       H  0.74397438  0.17302311  0.04527745     0.10200
Br1281     Br  0.71599610  0.21200760  0.98686719    -0.05300
Br1282     Br  0.78428595  0.17053832  0.95217086    -0.02300
Br1283     Br  0.76143848  0.23757390  0.03874322     0.00600
Br1284     Br  0.73946977  0.15810723  0.01011576    -0.03800
C1285       C  0.80460975  0.22505742  0.88431004    -0.11200
C1286       C  0.82157360  0.21924016  0.88927401     0.04300
C1287       C  0.83635145  0.22604793  0.88081362    -0.11800
C1288       C  0.83463152  0.23876105  0.86764171     0.19100
C1289       C  0.81797430  0.24571532  0.86381497    -0.08800
C1290       C  0.80316480  0.23896784  0.87222170    -0.01800
H1291       H  0.84917335  0.22073806  0.88385710     0.05600
C1292       C  0.84960691  0.24205232  0.85589035     0.21100
H1293       H  0.79039092  0.24380132  0.86830275     0.10800
C1294       C  0.85330950  0.22940465  0.84312350    -0.15100
C1295       C  0.86661386  0.23205806  0.83090103     0.03800
C1296       C  0.87653203  0.24772923  0.83128900    -0.10500
C1297       C  0.87325893  0.26013436  0.84454739    -0.00500
C1298       C  0.85982573  0.25740468  0.85679293    -0.05600
H1299       H  0.84563924  0.21744142  0.84256161     0.06800
H1300       H  0.88082499  0.27215257  0.84509978     0.10200
Br1301     Br  0.81460669  0.26301739  0.84580111    -0.05300
Br1302     Br  0.82572886  0.20160028  0.90684387    -0.02300
Br1303     Br  0.87097223  0.21335420  0.81454586     0.00600
Br1304     Br  0.85573026  0.27486947  0.87440774    -0.03800
C1305       C  0.77058671  0.15014985  0.86018875    -0.11200
C1306       C  0.78704154  0.14939271  0.85171945     0.04300
C1307       C  0.78963344  0.13756326  0.83800632    -0.11800
C1308       C  0.77617762  0.12626357  0.83262531     0.19100
C1309       C  0.76033719  0.12585457  0.84201204    -0.08800
C1310       C  0.75761196  0.13779277  0.85570438    -0.01800
H1311       H  0.80196934  0.13765960  0.83103430     0.05600
C1312       C  0.77847344  0.11668751  0.81600267     0.21100
H1313       H  0.74503531  0.13797214  0.86224040     0.10800
C1314       C  0.78948807  0.10198894  0.81547469    -0.15100
C1315       C  0.79466155  0.09476753  0.79940875     0.03800
C1316       C  0.78876868  0.10240026  0.78350222    -0.10500
C1317       C  0.77686378  0.11647565  0.78421901    -0.00500
C1318       C  0.77190197  0.12375870  0.80025183    -0.05600
H1319       H  0.79462343  0.09657423  0.82756797     0.06800
H1320       H  0.77226181  0.12262546  0.77225533     0.10200
Br1321     Br  0.74198066  0.10966913  0.83610566    -0.05300
Br1322     Br  0.80658559  0.16402600  0.85816697    -0.02300
Br1323     Br  0.80996078  0.07475726  0.80027849     0.00600
Br1324     Br  0.75767513  0.14456689  0.79992218    -0.03800
C1325       C  0.72512964  0.22216560  0.54640163    -0.11200
C1326       C  0.71327331  0.21109495  0.53726945     0.04300
C1327       C  0.71315956  0.21089973  0.51887341    -0.11800
C1328       C  0.72467095  0.22149466  0.50926003     0.19100
C1329       C  0.73643360  0.23254106  0.51821891    -0.08800
C1330       C  0.73660803  0.23279849  0.53657197    -0.01800
H1331       H  0.70412779  0.20232921  0.51200590     0.05600
C1332       C  0.72419394  0.22086917  0.48987540     0.21100
H1333       H  0.74577657  0.24144107  0.54316005     0.10800
C1334       C  0.71320463  0.23244668  0.48073079    -0.15100
C1335       C  0.71258184  0.23241873  0.46235622     0.03800
C1336       C  0.72319230  0.22058371  0.45276271    -0.10500
C1337       C  0.73413383  0.20893553  0.46208254    -0.00500
C1338       C  0.73460899  0.20895013  0.48045647    -0.05600
H1339       H  0.70522414  0.24169121  0.48794028     0.06800
H1340       H  0.74237391  0.19977354  0.45506867     0.10200
Br1341     Br  0.75256698  0.24740468  0.50589156    -0.05300
Br1342     Br  0.69736982  0.19534475  0.54878509    -0.02300
Br1343     Br  0.69775144  0.24966392  0.45142835     0.00600
Br1344     Br  0.74974316  0.19258901  0.49223142    -0.03800
C1345       C  0.78745295  0.11525622  0.68632258    -0.11200
C1346       C  0.76925700  0.11893940  0.68524341     0.04300
C1347       C  0.76295651  0.13054093  0.67241646    -0.11800
C1348       C  0.77436240  0.13844404  0.66037006     0.19100
C1349       C  0.79226907  0.13397875  0.66073633    -0.08800
C1350       C  0.79863765  0.12246208  0.67354965    -0.01800
H1351       H  0.74914281  0.13385550  0.67218693     0.05600
C1352       C  0.76770351  0.15256366  0.64873485     0.21100
H1353       H  0.81257999  0.11976800  0.67393226     0.10800
C1354       C  0.77346188  0.16977834  0.65168656    -0.15100
C1355       C  0.76702205  0.18378093  0.64171653     0.03800
C1356       C  0.75460297  0.18068050  0.62821086    -0.10500
C1357       C  0.74879176  0.16336999  0.62531529    -0.00500
C1358       C  0.75518253  0.14938611  0.63548725    -0.05600
H1359       H  0.78272284  0.17239644  0.66218718     0.06800
H1360       H  0.73911466  0.16071337  0.61522456     0.10200
Br1361     Br  0.80862594  0.14362500  0.64424587    -0.05300
Br1362     Br  0.75217272  0.10891693  0.70079790    -0.02300
Br1363     Br  0.77459404  0.20685638  0.64859001     0.00600
Br1364     Br  0.74651321  0.12619076  0.63085263    -0.03800
C1365       C  0.64939672  0.25381150  0.80825030    -0.11200
C1366       C  0.64472050  0.23836629  0.81732510     0.04300
C1367       C  0.65650144  0.23087724  0.82935807    -0.11800
C1368       C  0.67297822  0.23852817  0.83244739     0.19100
C1369       C  0.67760174  0.25398039  0.82344169    -0.08800
C1370       C  0.66574737  0.26162019  0.81168455    -0.01800
H1371       H  0.65287540  0.21897401  0.83621895     0.05600
C1372       C  0.68564822  0.22971005  0.84423904     0.21100
H1373       H  0.66963832  0.27331023  0.80463394     0.10800
C1374       C  0.69394553  0.21434954  0.83846992    -0.15100
C1375       C  0.70726554  0.20650981  0.84844873     0.03800
C1376       C  0.71231035  0.21400598  0.86465775    -0.10500
C1377       C  0.70366369  0.22915259  0.87057350    -0.00500
C1378       C  0.69038924  0.23696790  0.86056040    -0.05600
H1379       H  0.69050822  0.20883783  0.82583931     0.06800
H1380       H  0.70734093  0.23502571  0.88296830     0.10200
Br1381     Br  0.70043351  0.26441578  0.82578105    -0.05300
Br1382     Br  0.62226662  0.22736906  0.81428908    -0.02300
Br1383     Br  0.71917996  0.18675187  0.83832139     0.00600
Br1384     Br  0.67926748  0.25763564  0.86962011    -0.03800
C1385       C  0.63327189  0.25467365  0.71469340    -0.11200
C1386       C  0.63844822  0.23706613  0.71200344     0.04300
C1387       C  0.64781354  0.23254783  0.69689045    -0.11800
C1388       C  0.65210584  0.24529833  0.68435312     0.19100
C1389       C  0.64606926  0.26257896  0.68646953    -0.08800
C1390       C  0.63657767  0.26710515  0.70144061    -0.01800
H1391       H  0.65233521  0.21916395  0.69521067     0.05600
C1392       C  0.66439543  0.24084577  0.67015054     0.21100
H1393       H  0.63281181  0.28066589  0.70321581     0.10800
C1394       C  0.65800684  0.23626179  0.65350951    -0.15100
C1395       C  0.66955876  0.23248908  0.63972645     0.03800
C1396       C  0.68789927  0.23317322  0.64264109    -0.10500
C1397       C  0.69410116  0.23777379  0.65945500    -0.00500
C1398       C  0.68257198  0.24166499  0.67306272    -0.05600
H1399       H  0.64397868  0.23571893  0.65122858     0.06800
H1400       H  0.70804119  0.23867268  0.66203998     0.10200
Br1401     Br  0.65187853  0.28073498  0.67001218    -0.05300
Br1402     Br  0.63327639  0.21864659  0.72839545    -0.02300
Br1403     Br  0.65930175  0.22622295  0.61757573     0.00600
Br1404     Br  0.69225467  0.24858008  0.69531414    -0.03800
C1405       C  0.82871709  0.36458389  0.73410976    -0.11200
C1406       C  0.84513648  0.36454882  0.72544828     0.04300
C1407       C  0.85892036  0.35419394  0.73197465    -0.11800
C1408       C  0.85663145  0.34366041  0.74690021     0.19100
C1409       C  0.84054359  0.34419693  0.75586826    -0.08800
C1410       C  0.82690027  0.35467596  0.74956988    -0.01800
H1411       H  0.87132054  0.35395929  0.72510524     0.05600
C1412       C  0.87053272  0.33123591  0.75240946     0.21100
H1413       H  0.81449239  0.35435658  0.75642138     0.10800
C1414       C  0.87881928  0.33349473  0.76869895    -0.15100
C1415       C  0.88966088  0.32040207  0.77574272     0.03800
C1416       C  0.89246450  0.30463235  0.76628596    -0.10500
C1417       C  0.88512254  0.30307810  0.74937728    -0.00500
C1418       C  0.87420187  0.31613364  0.74247079    -0.05600
H1419       H  0.87619925  0.34518430  0.77631159     0.06800
H1420       H  0.88711363  0.29125839  0.74178505     0.10200
Br1421     Br  0.83593473  0.32970009  0.77595956    -0.05300
Br1422     Br  0.84977368  0.37807639  0.70470346    -0.02300
Br1423     Br  0.89954128  0.32497854  0.79851583     0.00600
Br1424     Br  0.86335392  0.31196332  0.72007932    -0.03800
C1425       C  0.73105125  0.37218073  0.73964850    -0.11200
C1426       C  0.71447860  0.37961442  0.73579116     0.04300
C1427       C  0.69917051  0.37149725  0.74190221    -0.11800
C1428       C  0.69997365  0.35602209  0.75187168     0.19100
C1429       C  0.71650130  0.34914943  0.75654668    -0.08800
C1430       C  0.73180195  0.35734821  0.75062941    -0.01800
H1431       H  0.68653898  0.37685055  0.73822717     0.05600
C1432       C  0.68372737  0.34568076  0.75448098     0.21100
H1433       H  0.74432691  0.35136809  0.75371957     0.10800
C1434       C  0.67577190  0.33824980  0.73963857    -0.15100
C1435       C  0.66163909  0.32671129  0.74124016     0.03800
C1436       C  0.65521630  0.32229658  0.75803395    -0.10500
C1437       C  0.66240716  0.33067726  0.77284652    -0.00500
C1438       C  0.67656452  0.34233358  0.77117344    -0.05600
H1439       H  0.68093126  0.34105372  0.72672743     0.06800
H1440       H  0.65752076  0.32761490  0.78579161     0.10200
Br1441     Br  0.71896983  0.32747751  0.76921156    -0.05300
Br1442     Br  0.71169186  0.40063358  0.72215015    -0.02300
Br1443     Br  0.65161871  0.31767893  0.71989462     0.00600
Br1444     Br  0.68576382  0.35319280  0.79196464    -0.03800
C1445       C  0.77651622  0.34975958  0.66857140    -0.11200
C1446       C  0.78481376  0.33320538  0.66917855     0.04300
C1447       C  0.78045253  0.32038320  0.65681879    -0.11800
C1448       C  0.76810526  0.32380270  0.64355369     0.19100
C1449       C  0.76076530  0.34074840  0.64220232    -0.08800
C1450       C  0.76507465  0.35359315  0.65461587    -0.01800
H1451       H  0.78617091  0.30745604  0.65802519     0.05600
C1452       C  0.76135383  0.30887748  0.63306044     0.21100
H1453       H  0.75875090  0.36627926  0.65387495     0.10800
C1454       C  0.74370885  0.30410968  0.63505055    -0.15100
C1455       C  0.73711518  0.28871536  0.62760175     0.03800
C1456       C  0.74833238  0.27762462  0.61787689    -0.10500
C1457       C  0.76593467  0.28259195  0.61555619    -0.00500
C1458       C  0.77247795  0.29808641  0.62301540    -0.05600
H1459       H  0.73518714  0.31200163  0.64318138     0.06800
H1460       H  0.77470660  0.27425664  0.60816436     0.10200
Br1461     Br  0.74434954  0.34681336  0.62403392    -0.05300
Br1462     Br  0.80224684  0.32729866  0.68649027    -0.02300
Br1463     Br  0.71320954  0.28283193  0.63307615     0.00600
Br1464     Br  0.79669170  0.30385278  0.61927334    -0.03800
C1465       C  0.27270913  0.16300758  0.85722599    -0.11200
C1466       C  0.25547857  0.16118131  0.85046774     0.04300
C1467       C  0.25225351  0.14996429  0.83628359    -0.11800
C1468       C  0.26588784  0.14042517  0.82851491     0.19100
C1469       C  0.28290991  0.14160687  0.83566052    -0.08800
C1470       C  0.28618337  0.15271206  0.84998624    -0.01800
H1471       H  0.23913764  0.14912196  0.83090635     0.05600
C1472       C  0.26230676  0.13085445  0.81194544     0.21100
H1473       H  0.29944598  0.15385779  0.85496523     0.10800
C1474       C  0.26899659  0.13763658  0.79622335    -0.15100
C1475       C  0.26422805  0.13047155  0.77997054     0.03800
C1476       C  0.25250371  0.11606270  0.77924407    -0.10500
C1477       C  0.24633922  0.10892993  0.79513283    -0.00500
C1478       C  0.25105965  0.11622151  0.81133206    -0.05600
H1479       H  0.27744992  0.14905746  0.79657280     0.06800
H1480       H  0.23739773  0.09788648  0.79498753     0.10200
Br1481     Br  0.30208556  0.12853688  0.82599342    -0.05300
Br1482     Br  0.23565137  0.17351608  0.85992053    -0.02300
Br1483     Br  0.27314705  0.14214259  0.75950866     0.00600
Br1484     Br  0.24160831  0.10590626  0.83223615    -0.03800
C1485       C  0.06496630  0.26441126  0.80492568    -0.11200
C1486       C  0.05497646  0.25202449  0.81446821     0.04300
C1487       C  0.03662186  0.25253513  0.81366543    -0.11800
C1488       C  0.02789609  0.26550437  0.80392316     0.19100
C1489       C  0.03778646  0.27886910  0.79587034    -0.08800
C1490       C  0.05614110  0.27800314  0.79604407    -0.01800
H1491       H  0.02911881  0.24246776  0.82027982     0.05600
C1492       C  0.00857177  0.26441534  0.80184300     0.21100
H1493       H  0.06354345  0.28799690  0.78919965     0.10800
C1494       C  0.99780491  0.26576026  0.81665295    -0.15100
C1495       C  0.97951923  0.26419215  0.81523926     0.03800
C1496       C  0.97162463  0.26144059  0.79858633    -0.10500
C1497       C  0.98257599  0.25983532  0.78384965    -0.00500
C1498       C  0.00082097  0.26101030  0.78539076    -0.05600
H1499       H  0.00368346  0.26798478  0.82940047     0.06800
H1500       H  0.97698357  0.25728519  0.77104783     0.10200
Br1501     Br  0.02677950  0.29877133  0.78496561    -0.05300
Br1502     Br  0.06534814  0.23340893  0.82796712    -0.02300
Br1503     Br  0.96647874  0.26602723  0.83667641     0.00600
Br1504     Br  0.01458084  0.25667848  0.76478102    -0.03800
C1505       C  0.15596497  0.24940793  0.84361258    -0.11200
C1506       C  0.16134331  0.23254301  0.84930042     0.04300
C1507       C  0.17590144  0.23082332  0.86043047    -0.11800
C1508       C  0.18529111  0.24560597  0.86616216     0.19100
C1509       C  0.17921366  0.26243296  0.86153129    -0.08800
C1510       C  0.16462257  0.26421916  0.85047858    -0.01800
H1511       H  0.18045155  0.21783913  0.86390217     0.05600
C1512       C  0.20271890  0.24296872  0.87446162     0.21100
H1513       H  0.16068684  0.27726692  0.84647699     0.10800
C1514       C  0.21764551  0.24795855  0.86501251    -0.15100
C1515       C  0.23446122  0.24309042  0.87052882     0.03800
C1516       C  0.23662330  0.23280044  0.88587709    -0.10500
C1517       C  0.22165660  0.22866462  0.89586163    -0.00500
C1518       C  0.20483309  0.23368073  0.89029473    -0.05600
H1519       H  0.21613722  0.25493283  0.85271448     0.06800
H1520       H  0.22295703  0.22098300  0.90775535     0.10200
Br1521     Br  0.19086643  0.28335174  0.86936681    -0.05300
Br1522     Br  0.14982354  0.21123756  0.84222285    -0.02300
Br1523     Br  0.25339728  0.24961618  0.85526748     0.00600
Br1524     Br  0.18509850  0.22732848  0.90451068    -0.03800
C1525       C  0.13711136  0.21144459  0.76888257    -0.11200
C1526       C  0.12751622  0.19550448  0.76842217     0.04300
C1527       C  0.13550161  0.18013430  0.76217230    -0.11800
C1528       C  0.15291083  0.18031432  0.75628256     0.19100
C1529       C  0.16221882  0.19624603  0.75609974    -0.08800
C1530       C  0.15430015  0.21157718  0.76220743    -0.01800
H1531       H  0.12820906  0.16794807  0.76213730     0.05600
C1532       C  0.16157309  0.16382350  0.75083477     0.21100
H1533       H  0.16199298  0.22351083  0.76242582     0.10800
C1534       C  0.16558298  0.16126536  0.73309389    -0.15100
C1535       C  0.17630638  0.14733448  0.72774413     0.03800
C1536       C  0.18308955  0.13542054  0.74036291    -0.10500
C1537       C  0.17811052  0.13755539  0.75803054    -0.00500
C1538       C  0.16758191  0.15161066  0.76331156    -0.05600
H1539       H  0.16099142  0.17065459  0.72345228     0.06800
H1540       H  0.18306915  0.12871511  0.76801497     0.10200
Br1541     Br  0.18627939  0.19749690  0.74880945    -0.05300
Br1542     Br  0.10355684  0.19363677  0.77591119    -0.02300
Br1543     Br  0.18175797  0.14632567  0.70318498     0.00600
Br1544     Br  0.16300081  0.15439864  0.78790605    -0.03800
C1545       C  0.47011872  0.28902357  0.77096215    -0.11200
C1546       C  0.47935692  0.27354652  0.76629710     0.04300
C1547       C  0.49757608  0.27279649  0.76829494    -0.11800
C1548       C  0.50700478  0.28701154  0.77512516     0.19100
C1549       C  0.49787686  0.30213136  0.78049286    -0.08800
C1550       C  0.47962278  0.30304834  0.77839624    -0.01800
H1551       H  0.50451296  0.26116457  0.76409402     0.05600
C1552       C  0.52642010  0.28631049  0.77489075     0.21100
H1553       H  0.47291259  0.31490158  0.78236642     0.10800
C1554       C  0.53542283  0.29729150  0.76323297    -0.15100
C1555       C  0.55361528  0.29607894  0.76125954     0.03800
C1556       C  0.56326659  0.28375723  0.77129427    -0.10500
C1557       C  0.55416505  0.27270683  0.78293805    -0.00500
C1558       C  0.53591752  0.27385863  0.78474693    -0.05600
H1559       H  0.52814804  0.30649801  0.75518865     0.06800
H1560       H  0.56125445  0.26312151  0.79068755     0.10200
Br1561     Br  0.50981825  0.32177199  0.79083302    -0.05300
Br1562     Br  0.46844424  0.25278066  0.75694849    -0.02300
Br1563     Br  0.56398479  0.31060262  0.74348406     0.00600
Br1564     Br  0.52457146  0.25826152  0.80091962    -0.03800
C1565       C  0.38684571  0.26383885  0.80263838    -0.11200
C1566       C  0.39375175  0.26146684  0.81970020     0.04300
C1567       C  0.38343183  0.25366638  0.83269832    -0.11800
C1568       C  0.36639260  0.24790242  0.82889896     0.19100
C1569       C  0.35973027  0.24961036  0.81174589    -0.08800
C1570       C  0.36994925  0.25751268  0.79877957    -0.01800
H1571       H  0.38869936  0.25208566  0.84582488     0.05600
C1572       C  0.35544940  0.24064380  0.84305125     0.21100
H1573       H  0.36445129  0.25915666  0.78575663     0.10800
C1574       C  0.34637985  0.25217387  0.85405923    -0.15100
C1575       C  0.33431175  0.24586873  0.86635300     0.03800
C1576       C  0.33104002  0.22758327  0.86759242    -0.10500
C1577       C  0.34114923  0.21608385  0.85726088    -0.00500
C1578       C  0.35323648  0.22247402  0.84508399    -0.05600
H1579       H  0.34834976  0.26619435  0.85272623     0.06800
H1580       H  0.33920185  0.20203132  0.85811009     0.10200
Br1581     Br  0.33655435  0.24181658  0.80559461    -0.05300
Br1582     Br  0.41739375  0.26772250  0.82584124    -0.02300
Br1583     Br  0.32283855  0.26315214  0.88061655     0.00600
Br1584     Br  0.36600383  0.20599724  0.83102039    -0.03800
C1585       C  0.20840091  0.36272135  0.73514219    -0.11200
C1586       C  0.19488111  0.37027292  0.74532319     0.04300
C1587       C  0.18204282  0.35947962  0.75290766    -0.11800
C1588       C  0.18240224  0.34122415  0.75050829     0.19100
C1589       C  0.19571776  0.33373411  0.74022699    -0.08800
C1590       C  0.20854022  0.34442470  0.73271553    -0.01800
H1591       H  0.17190765  0.36529492  0.76092905     0.05600
C1592       C  0.16930398  0.32992347  0.75927761     0.21100
H1593       H  0.21871214  0.33833901  0.72493537     0.10800
C1594       C  0.15597783  0.32207033  0.74928054    -0.15100
C1595       C  0.14483389  0.30944421  0.75665059     0.03800
C1596       C  0.14713308  0.30428644  0.77436492    -0.10500
C1597       C  0.15988285  0.31300959  0.78455342    -0.00500
C1598       C  0.17087389  0.32571943  0.77717427    -0.05600
H1599       H  0.15452962  0.32548198  0.73557395     0.06800
H1600       H  0.16182712  0.30947074  0.79817720     0.10200
Br1601     Br  0.19729778  0.30884667  0.73658628    -0.05300
Br1602     Br  0.19377755  0.39493596  0.75035829    -0.02300
Br1603     Br  0.12670243  0.30014114  0.74177160     0.00600
Br1604     Br  0.18855846  0.33622277  0.79176834    -0.03800
C1605       C  0.29993881  0.38144521  0.73887833    -0.11200
C1606       C  0.31532144  0.39163895  0.73705017     0.04300
C1607       C  0.33140966  0.38517397  0.74319605    -0.11800
C1608       C  0.33258915  0.36846540  0.75084287     0.19100
C1609       C  0.31712228  0.35869053  0.75354483    -0.08800
C1610       C  0.30097626  0.36530872  0.74777417    -0.01800
H1611       H  0.34319153  0.39286438  0.74127804     0.05600
C1612       C  0.35006491  0.36060112  0.75418899     0.21100
H1613       H  0.28936619  0.35725643  0.74924609     0.10800
C1614       C  0.35513044  0.35628049  0.77137882    -0.15100
C1615       C  0.37010276  0.34605772  0.77452568     0.03800
C1616       C  0.38030050  0.34007231  0.76028483    -0.10500
C1617       C  0.37609978  0.34585768  0.74328747    -0.00500
C1618       C  0.36107831  0.35590553  0.74014033    -0.05600
H1619       H  0.34699160  0.36020472  0.78228408     0.06800
H1620       H  0.38373789  0.34143229  0.73219641     0.10200
Br1621     Br  0.31753600  0.33545708  0.76336642    -0.05300
Br1622     Br  0.31534971  0.41434486  0.72611418    -0.02300
Br1623     Br  0.37578987  0.34052836  0.79846468     0.00600
Br1624     Br  0.35523411  0.36116192  0.71617480    -0.03800
C1625       C  0.24910858  0.12451724  0.68398632    -0.11200
C1626       C  0.26712052  0.12867550  0.68243089     0.04300
C1627       C  0.27265501  0.14054556  0.66957847    -0.11800
C1628       C  0.26063434  0.14802344  0.65780907     0.19100
C1629       C  0.24305007  0.14240611  0.65804312    -0.08800
C1630       C  0.23736489  0.13089828  0.67118404    -0.01800
H1631       H  0.28635360  0.14426286  0.66900658     0.05600
C1632       C  0.26664247  0.16220283  0.64601517     0.21100
H1633       H  0.22359687  0.12745891  0.67173526     0.10800
C1634       C  0.27879352  0.15840264  0.63278907    -0.15100
C1635       C  0.28579088  0.17177916  0.62230970     0.03800
C1636       C  0.28047589  0.18936001  0.62494379    -0.10500
C1637       C  0.26810169  0.19303328  0.63806571    -0.00500
C1638       C  0.26139519  0.17971497  0.64871048    -0.05600
H1639       H  0.28301222  0.14499460  0.63077602     0.06800
H1640       H  0.26415628  0.20644512  0.64058907     0.10200
Br1641     Br  0.22644523  0.15016335  0.64069823    -0.05300
Br1642     Br  0.28494009  0.11821669  0.69691794    -0.02300
Br1643     Br  0.30228477  0.16501920  0.60457457     0.00600
Br1644     Br  0.24621954  0.18634391  0.66764918    -0.03800
C1645       C  0.27987833  0.28477099  0.61383073    -0.11200
C1646       C  0.28338703  0.30100603  0.60559754     0.04300
C1647       C  0.27777366  0.31669804  0.61340489    -0.11800
C1648       C  0.26863822  0.31647570  0.62936046     0.19100
C1649       C  0.26422176  0.30024563  0.63700340    -0.08800
C1650       C  0.26972357  0.28459738  0.62918104    -0.01800
H1651       H  0.28104895  0.32910270  0.60735446     0.05600
C1652       C  0.26558657  0.33304425  0.63902150     0.21100
H1653       H  0.26689132  0.27231744  0.63568298     0.10800
C1654       C  0.24852934  0.33973171  0.64072764    -0.15100
C1655       C  0.24495883  0.35357664  0.65233310     0.03800
C1656       C  0.25869925  0.36087967  0.66258038    -0.10500
C1657       C  0.27593404  0.35491708  0.65973308    -0.00500
C1658       C  0.27941205  0.34112323  0.64821719    -0.05600
H1659       H  0.23784867  0.33367605  0.63353006     0.06800
H1660       H  0.28675654  0.36030054  0.66723639     0.10200
Br1661     Br  0.25207218  0.29883182  0.65898552    -0.05300
Br1662     Br  0.29547664  0.30251965  0.58361271    -0.02300
Br1663     Br  0.22102933  0.36133850  0.65372467     0.00600
Br1664     Br  0.30309059  0.33266043  0.64682611    -0.03800
C1665       C  0.34698845  0.24337143  0.63870070    -0.11200
C1666       C  0.36527349  0.24412460  0.63575673     0.04300
C1667       C  0.37659194  0.24934327  0.64940732    -0.11800
C1668       C  0.36994246  0.25346983  0.66605600     0.19100
C1669       C  0.35187742  0.25182855  0.66919380    -0.08800
C1670       C  0.34062778  0.24691084  0.65562649    -0.01800
H1671       H  0.39056825  0.25021698  0.64704038     0.05600
C1672       C  0.38156606  0.26019931  0.68005677     0.21100
H1673       H  0.32668821  0.24623906  0.65831284     0.10800
C1674       C  0.38249296  0.27837607  0.68269962    -0.15100
C1675       C  0.39034729  0.28533732  0.69779133     0.03800
C1676       C  0.39759870  0.27392811  0.71056105    -0.10500
C1677       C  0.39730034  0.25572340  0.70743994    -0.00500
C1678       C  0.38935387  0.24884113  0.69235383    -0.05600
H1679       H  0.37618545  0.28714244  0.67344004     0.06800
H1680       H  0.40276820  0.24676325  0.71702440     0.10200
Br1681     Br  0.34190578  0.25637576  0.69184295    -0.05300
Br1682     Br  0.37556684  0.23718326  0.61391598    -0.02300
Br1683     Br  0.38876416  0.31032761  0.70089872     0.00600
Br1684     Br  0.38831653  0.22383884  0.68962601    -0.03800
C1685       C  0.28932262  0.77937185  0.95455770    -0.11200
C1686       C  0.28668554  0.76388323  0.96454131     0.04300
C1687       C  0.28654727  0.76471866  0.98289573    -0.11800
C1688       C  0.28896594  0.78069906  0.99164817     0.19100
C1689       C  0.29185338  0.79605709  0.98183300    -0.08800
C1690       C  0.29187931  0.79533820  0.96348374    -0.01800
H1691       H  0.28435803  0.75286374  0.99040148     0.05600
C1692       C  0.28863082  0.78098847  0.01104170     0.21100
H1693       H  0.29406547  0.80732359  0.95618554     0.10800
C1694       C  0.30304199  0.77437080  0.02041463    -0.15100
C1695       C  0.30307680  0.77409903  0.03878966     0.03800
C1696       C  0.28840816  0.78049804  0.04809530    -0.10500
C1697       C  0.27409275  0.78732929  0.03861659    -0.00500
C1698       C  0.27404719  0.78746963  0.02026482    -0.05600
H1699       H  0.31432046  0.76946311  0.01339471     0.06800
H1700       H  0.26265174  0.79211009  0.04548454     0.10200
Br1701     Br  0.29630116  0.81819387  0.99297979    -0.05300
Br1702     Br  0.28236439  0.74124178  0.95427278    -0.02300
Br1703     Br  0.32386752  0.76560322  0.05028183     0.00600
Br1704     Br  0.25347747  0.79591321  0.00836945    -0.03800
C1705       C  0.16059484  0.73262456  0.83526476    -0.11200
C1706       C  0.17029536  0.71805678  0.84144951     0.04300
C1707       C  0.18470860  0.72070078  0.85260683    -0.11800
C1708       C  0.18974905  0.73768957  0.85762102     0.19100
C1709       C  0.17974634  0.75215701  0.85189168    -0.08800
C1710       C  0.16511332  0.74950783  0.84114342    -0.01800
H1711       H  0.19239216  0.70954420  0.85686958     0.05600
C1712       C  0.20666369  0.74036608  0.86676678     0.21100
H1713       H  0.15809298  0.76078970  0.83634298     0.10800
C1714       C  0.22217466  0.73719016  0.85751510    -0.15100
C1715       C  0.23845514  0.74226315  0.86432851     0.03800
C1716       C  0.23933687  0.75097039  0.88073883    -0.10500
C1717       C  0.22381680  0.75292016  0.89051369    -0.00500
C1718       C  0.20760832  0.74751326  0.88374010    -0.05600
H1719       H  0.22152899  0.73144810  0.84454695     0.06800
H1720       H  0.22418338  0.75909597  0.90329715     0.10200
Br1721     Br  0.18673209  0.77596379  0.85645101    -0.05300
Br1722     Br  0.16470016  0.69433168  0.83504381    -0.02300
Br1723     Br  0.25848101  0.73780487  0.84973100     0.00600
Br1724     Br  0.18706269  0.75037802  0.89792474    -0.03800
C1725       C  0.22594500  0.04183366  0.72626966    -0.11200
C1726       C  0.21362675  0.03122315  0.73522967     0.04300
C1727       C  0.21563916  0.01291263  0.73541040    -0.11800
C1728       C  0.22957101  0.00481463  0.72656976     0.19100
C1729       C  0.24118853  0.01525285  0.71675716    -0.08800
C1730       C  0.23950404  0.03355337  0.71691412    -0.01800
H1731       H  0.20644517  0.00495149  0.74272952     0.05600
C1732       C  0.23170632  0.98548323  0.72770526     0.21100
H1733       H  0.24883941  0.04135087  0.70960334     0.10800
C1734       C  0.21932492  0.97456669  0.71955598    -0.15100
C1735       C  0.22077388  0.95624174  0.72047052     0.03800
C1736       C  0.23482275  0.94846196  0.72989362    -0.10500
C1737       C  0.24728617  0.95951297  0.73791173    -0.00500
C1738       C  0.24576243  0.97781103  0.73700035    -0.05600
H1739       H  0.20853978  0.98035589  0.71231686     0.06800
H1740       H  0.25807324  0.95393043  0.74529421     0.10200
Br1741     Br  0.25918157  0.00503353  0.70248019    -0.05300
Br1742     Br  0.19430289  0.04072604  0.74822414    -0.02300
Br1743     Br  0.20346848  0.94287108  0.70787999     0.00600
Br1744     Br  0.26277657  0.99173714  0.74936297    -0.03800
C1745       C  0.26350776  0.87749776  0.78786896    -0.11200
C1746       C  0.25718912  0.88376223  0.80415987     0.04300
C1747       C  0.26171903  0.87504969  0.81972953    -0.11800
C1748       C  0.27260059  0.86023774  0.81946745     0.19100
C1749       C  0.27979406  0.85464477  0.80345148    -0.08800
C1750       C  0.27539001  0.86335699  0.78788570    -0.01800
H1751       H  0.25617676  0.87941968  0.83202218     0.05600
C1752       C  0.27412887  0.84921532  0.83536771     0.21100
H1753       H  0.28041193  0.85828741  0.77565067     0.10800
C1754       C  0.26012510  0.83810521  0.83949832    -0.15100
C1755       C  0.26148738  0.82578753  0.85303174     0.03800
C1756       C  0.27727707  0.82445001  0.86289024    -0.10500
C1757       C  0.29099794  0.83628946  0.85918862    -0.00500
C1758       C  0.28950140  0.84860618  0.84558341    -0.05600
H1759       H  0.24826229  0.83858469  0.83167956     0.06800
H1760       H  0.30314435  0.83569272  0.86658240     0.10200
Br1761     Br  0.29421979  0.83404519  0.80196568    -0.05300
Br1762     Br  0.24209757  0.90383401  0.80624704    -0.02300
Br1763     Br  0.24143318  0.81077748  0.85619709     0.00600
Br1764     Br  0.30880749  0.86410382  0.84111232    -0.03800
C1765       C  0.19602204  0.85484795  0.74187822    -0.11200
C1766       C  0.19657657  0.83813145  0.73375719     0.04300
C1767       C  0.18407759  0.82540150  0.73801644    -0.11800
C1768       C  0.17053726  0.82901340  0.74986281     0.19100
C1769       C  0.16907924  0.84608515  0.75683753    -0.08800
C1770       C  0.18178682  0.85879222  0.75289849    -0.01800
H1771       H  0.18532828  0.81237769  0.73252194     0.05600
C1772       C  0.15980091  0.81420006  0.75656397     0.21100
H1773       H  0.18082280  0.87158897  0.75895996     0.10800
C1774       C  0.16108084  0.80997554  0.77442551    -0.15100
C1775       C  0.15318044  0.79489671  0.78122125     0.03800
C1776       C  0.14381775  0.78343330  0.76997261    -0.10500
C1777       C  0.14223597  0.78785913  0.75210331    -0.00500
C1778       C  0.15005557  0.80310752  0.74537965    -0.05600
H1779       H  0.16888516  0.81812772  0.78305014     0.06800
H1780       H  0.13504941  0.77934718  0.74328273     0.10200
Br1781     Br  0.15004366  0.85255693  0.77193411    -0.05300
Br1782     Br  0.21385017  0.83154741  0.71665610    -0.02300
Br1783     Br  0.15724937  0.79023286  0.80568708     0.00600
Br1784     Br  0.14698938  0.80824645  0.72090024    -0.03800
C1785       C  0.24306831  0.44878665  0.70582364    -0.11200
C1786       C  0.23886709  0.45965536  0.72028384     0.04300
C1787       C  0.23842827  0.47793174  0.71823093    -0.11800
C1788       C  0.24177290  0.48572555  0.70192842     0.19100
C1789       C  0.24521400  0.47498416  0.68735417    -0.08800
C1790       C  0.24583523  0.45671559  0.68936399    -0.01800
H1791       H  0.23561758  0.48613678  0.72944825     0.05600
C1792       C  0.24299443  0.50507532  0.70077979     0.21100
H1793       H  0.24896844  0.44873291  0.67806649     0.10800
C1794       C  0.25842835  0.51324547  0.70657162    -0.15100
C1795       C  0.26015691  0.53151636  0.70612902     0.03800
C1796       C  0.24615999  0.54200577  0.69991554    -0.10500
C1797       C  0.23083000  0.53376254  0.69375467    -0.00500
C1798       C  0.22913138  0.51543507  0.69426103    -0.05600
H1799       H  0.26921429  0.50534476  0.71136489     0.06800
H1800       H  0.22000225  0.54159798  0.68891921     0.10200
Br1801     Br  0.24981559  0.48476815  0.66463022    -0.05300
Br1802     Br  0.23300720  0.45062301  0.74305838    -0.02300
Br1803     Br  0.28237837  0.54119895  0.71316532     0.00600
Br1804     Br  0.20754605  0.50512141  0.68639564    -0.03800
C1805       C  0.20647802  0.62391099  0.72576265    -0.11200
C1806       C  0.20590143  0.62839794  0.74379040     0.04300
C1807       C  0.19308439  0.64005550  0.74987014    -0.11800
C1808       C  0.18074404  0.64746856  0.73837710     0.19100
C1809       C  0.18077781  0.64249507  0.72063042    -0.08800
C1810       C  0.19343095  0.63072061  0.71451228    -0.01800
H1811       H  0.19311661  0.64384897  0.76354794     0.05600
C1812       C  0.16917745  0.66161688  0.74486996     0.21100
H1813       H  0.19347775  0.62751656  0.70068024     0.10800
C1814       C  0.17274970  0.67893984  0.73987913    -0.15100
C1815       C  0.16344186  0.69301723  0.74704999     0.03800
C1816       C  0.15011696  0.68984322  0.75961614    -0.10500
C1817       C  0.14619738  0.67231797  0.76407929    -0.00500
C1818       C  0.15562374  0.65830502  0.75687070    -0.05600
H1819       H  0.18322665  0.68154941  0.73068979     0.06800
H1820       H  0.13603830  0.66945541  0.77353422     0.10200
Br1821     Br  0.16410234  0.65185630  0.70418296    -0.05300
Br1822     Br  0.22221571  0.61958728  0.76092501    -0.02300
Br1823     Br  0.17041477  0.71601427  0.73932027     0.00600
Br1824     Br  0.14965690  0.63485028  0.76381861    -0.03800
C1825       C  0.31532846  0.76463871  0.54575380    -0.11200
C1826       C  0.30241606  0.77327603  0.53546020     0.04300
C1827       C  0.30312257  0.77235925  0.51712658    -0.11800
C1828       C  0.31645981  0.76302629  0.50862043     0.19100
C1829       C  0.32970975  0.75503102  0.51875121    -0.08800
C1830       C  0.32906680  0.75587957  0.53708869    -0.01800
H1831       H  0.29309130  0.77883239  0.50942394     0.05600
C1832       C  0.31613635  0.76168774  0.48919951     0.21100
H1833       H  0.33915985  0.74924734  0.54456702     0.10800
C1834       C  0.32927381  0.76992114  0.47931065    -0.15100
C1835       C  0.32908721  0.76926100  0.46091652     0.03800
C1836       C  0.31544227  0.76025401  0.45204601    -0.10500
C1837       C  0.30228689  0.75209872  0.46206878    -0.00500
C1838       C  0.30255818  0.75271024  0.48040675    -0.05600
H1839       H  0.33960643  0.77706943  0.48594275     0.06800
H1840       H  0.29177832  0.74500885  0.45562853     0.10200
Br1841     Br  0.34845954  0.74200251  0.50822086    -0.05300
Br1842     Br  0.28340289  0.78665039  0.54516639    -0.02300
Br1843     Br  0.34732724  0.78177413  0.44892512     0.00600
Br1844     Br  0.28432001  0.74060857  0.49283644    -0.03800
C1845       C  0.26265231  0.87061783  0.68879446    -0.11200
C1846       C  0.28036943  0.86534757  0.68692486     0.04300
C1847       C  0.28529737  0.85491780  0.67264604    -0.11800
C1848       C  0.27297087  0.84963590  0.66001043     0.19100
C1849       C  0.25564658  0.85586405  0.66115594    -0.08800
C1850       C  0.25065306  0.86627737  0.67538008    -0.01800
H1851       H  0.29866467  0.85016378  0.67187156     0.05600
C1852       C  0.27774708  0.83548204  0.64762111     0.21100
H1853       H  0.23706244  0.87030106  0.67630026     0.10800
C1854       C  0.26986791  0.81901644  0.64983364    -0.15100
C1855       C  0.27534609  0.80446351  0.64017890     0.03800
C1856       C  0.28909553  0.80622975  0.62787210    -0.10500
C1857       C  0.29666613  0.82290224  0.62533376    -0.00500
C1858       C  0.29110882  0.83745502  0.63508042    -0.05600
H1859       H  0.25981860  0.81731541  0.65971029     0.06800
H1860       H  0.30713318  0.82459571  0.61592138     0.10200
Br1861     Br  0.23818965  0.84994552  0.64392559    -0.05300
Br1862     Br  0.29854077  0.87131880  0.70339515    -0.02300
Br1863     Br  0.26440336  0.78246054  0.64589369     0.00600
Br1864     Br  0.30211101  0.85970709  0.63085915    -0.03800
C1865       C  0.28418731  0.71053157  0.61227484    -0.11200
C1866       C  0.28756376  0.69482131  0.60298778     0.04300
C1867       C  0.28098682  0.67881649  0.60922913    -0.11800
C1868       C  0.27121734  0.67801837  0.62476728     0.19100
C1869       C  0.26760690  0.69371276  0.63389024    -0.08800
C1870       C  0.27370914  0.70975759  0.62739282    -0.01800
H1871       H  0.28398506  0.66684402  0.60223314     0.05600
C1872       C  0.26683100  0.66066151  0.63242528     0.21100
H1873       H  0.27123601  0.72152909  0.63490267     0.10800
C1874       C  0.28057092  0.64954634  0.63767722    -0.15100
C1875       C  0.27731348  0.63462328  0.64790031     0.03800
C1876       C  0.26000123  0.63086814  0.65333279    -0.10500
C1877       C  0.24614928  0.64106502  0.64660562    -0.00500
C1878       C  0.24941540  0.65565610  0.63595758    -0.05600
H1879       H  0.29398695  0.65302894  0.63464911     0.06800
H1880       H  0.23274046  0.63807663  0.65019860     0.10200
Br1881     Br  0.25641192  0.69387468  0.65644838    -0.05300
Br1882     Br  0.30121342  0.69411176  0.58187690    -0.02300
Br1883     Br  0.29730644  0.62118682  0.65541487     0.00600
Br1884     Br  0.22972810  0.66853017  0.62688618    -0.03800
C1885       C  0.39147734  0.72679392  0.80555544    -0.11200
C1886       C  0.38209688  0.74280482  0.80443340     0.04300
C1887       C  0.37211684  0.74855040  0.81870086    -0.11800
C1888       C  0.37128283  0.73874748  0.83424567     0.19100
C1889       C  0.38109747  0.72317657  0.83566412    -0.08800
C1890       C  0.39102217  0.71730497  0.82140217    -0.01800
H1891       H  0.36441039  0.76043844  0.81743278     0.05600
C1892       C  0.35863335  0.74405229  0.84795822     0.21100
H1893       H  0.39824570  0.70513109  0.82265901     0.10800
C1894       C  0.34366206  0.73372344  0.85055862    -0.15100
C1895       C  0.33025122  0.73915784  0.86178823     0.03800
C1896       C  0.33160945  0.75549078  0.87063101    -0.10500
C1897       C  0.34706557  0.76541753  0.86854376    -0.00500
C1898       C  0.36047501  0.75983303  0.85734186    -0.05600
H1899       H  0.34216272  0.72156925  0.84335974     0.06800
H1900       H  0.34859409  0.77782759  0.87529440     0.10200
Br1901     Br  0.38130318  0.70955866  0.85685153    -0.05300
Br1902     Br  0.38097395  0.75684178  0.78350315    -0.02300
Br1903     Br  0.31039004  0.72368310  0.86354110     0.00600
Br1904     Br  0.38105539  0.77416302  0.85519580    -0.03800
C1905       C  0.35646485  0.75271814  0.63856297    -0.11200
C1906       C  0.37043603  0.76479447  0.64080339     0.04300
C1907       C  0.38306968  0.76190779  0.65395839    -0.11800
C1908       C  0.38208311  0.74712595  0.66488293     0.19100
C1909       C  0.36826759  0.73508781  0.66258249    -0.08800
C1910       C  0.35575996  0.73788033  0.64950755    -0.01800
H1911       H  0.39351063  0.77137412  0.65589082     0.05600
C1912       C  0.39452384  0.74481173  0.67960599     0.21100
H1913       H  0.34517117  0.72846448  0.64815221     0.10800
C1914       C  0.39200526  0.75460849  0.69492522    -0.15100
C1915       C  0.39973456  0.74940509  0.71079130     0.03800
C1916       C  0.40996945  0.73388109  0.71145710    -0.10500
C1917       C  0.41418929  0.72548000  0.69556721    -0.00500
C1918       C  0.40660755  0.73088404  0.67972442    -0.05600
H1919       H  0.38303727  0.76562312  0.69480163     0.06800
H1920       H  0.42240743  0.71389663  0.69556019     0.10200
Br1921     Br  0.36522699  0.71513359  0.67772582    -0.05300
Br1922     Br  0.37249740  0.78598287  0.62731466    -0.02300
Br1923     Br  0.39491140  0.76371331  0.73095360     0.00600
Br1924     Br  0.41177559  0.71791335  0.65879726    -0.03800
C1925       C  0.37871500  0.66304637  0.74598163    -0.11200
C1926       C  0.37156903  0.66172321  0.72886582     0.04300
C1927       C  0.35679953  0.65126570  0.72585011    -0.11800
C1928       C  0.34888582  0.64190448  0.73952740     0.19100
C1929       C  0.35657551  0.64227551  0.75635175    -0.08800
C1930       C  0.37136139  0.65280485  0.75946538    -0.01800
H1931       H  0.35121885  0.65071440  0.71280029     0.05600
C1932       C  0.33246515  0.63221982  0.73568470     0.21100
H1933       H  0.37672535  0.65344024  0.77261028     0.10800
C1934       C  0.33295159  0.61822867  0.72377510    -0.15100
C1935       C  0.31749856  0.61042288  0.71757416     0.03800
C1936       C  0.30098230  0.61658427  0.72347833    -0.10500
C1937       C  0.30064632  0.63025001  0.73589918    -0.00500
C1938       C  0.31612385  0.63817901  0.74183160    -0.05600
H1939       H  0.34546557  0.61378638  0.71876324     0.06800
H1940       H  0.28824596  0.63532007  0.74055799     0.10200
Br1941     Br  0.34733703  0.62868760  0.77541037    -0.05300
Br1942     Br  0.38133530  0.67349399  0.70883231    -0.02300
Br1943     Br  0.32032300  0.59229873  0.70027275     0.00600
Br1944     Br  0.31408268  0.65817111  0.75701135    -0.03800
C1945       C  0.56753618  0.28908403  0.22915183    -0.11200
C1946       C  0.55800455  0.30406347  0.23474256     0.04300
C1947       C  0.53963838  0.30429462  0.23334520    -0.11800
C1948       C  0.53046723  0.28991398  0.22644070     0.19100
C1949       C  0.53988767  0.27535072  0.22024807    -0.08800
C1950       C  0.55817612  0.27502192  0.22161261    -0.01800
H1951       H  0.53242813  0.31554358  0.23812536     0.05600
C1952       C  0.51108314  0.28951559  0.22736930     0.21100
H1953       H  0.56503676  0.26347129  0.21705721     0.10800
C1954       C  0.50092528  0.29711734  0.21400298    -0.15100
C1955       C  0.48251640  0.29629807  0.21446713     0.03800
C1956       C  0.47400306  0.28772126  0.22857459    -0.10500
C1957       C  0.48436688  0.28019665  0.24191884    -0.00500
C1958       C  0.50267450  0.28111699  0.24143823    -0.05600
H1959       H  0.50734509  0.30348102  0.20307098     0.06800
H1960       H  0.47822092  0.27365722  0.25290354     0.10200
Br1961     Br  0.52822900  0.25532661  0.21035809    -0.05300
Br1962     Br  0.56882940  0.32458854  0.24465511    -0.02300
Br1963     Br  0.47000182  0.30630265  0.19496958     0.00600
Br1964     Br  0.51578932  0.27075376  0.26033905    -0.03800
C1965       C  0.30455385  0.22176141  0.45022245    -0.11200
C1966       C  0.28930052  0.21795197  0.46017759     0.04300
C1967       C  0.29015874  0.21771022  0.47854453    -0.11800
C1968       C  0.30588690  0.22123913  0.48742063     0.19100
C1969       C  0.32116441  0.22449136  0.47766381    -0.08800
C1970       C  0.32044033  0.22466988  0.45928507    -0.01800
H1971       H  0.27837017  0.21518325  0.48599267     0.05600
C1972       C  0.30575912  0.22282363  0.50680230     0.21100
H1973       H  0.33229645  0.22758734  0.45210757     0.10800
C1974       C  0.31276042  0.20937057  0.51730539    -0.15100
C1975       C  0.31283781  0.21078470  0.53568659     0.03800
C1976       C  0.30599390  0.22599344  0.54378948    -0.10500
C1977       C  0.29867272  0.23920321  0.53317832    -0.00500
C1978       C  0.29851756  0.23772876  0.51490250    -0.05600
H1979       H  0.31800701  0.19769278  0.51118959     0.06800
H1980       H  0.29324387  0.25089562  0.53911432     0.10200
Br1981     Br  0.34307641  0.22978046  0.48894071    -0.05300
Br1982     Br  0.26666652  0.21322860  0.45001378    -0.02300
Br1983     Br  0.32116736  0.19103463  0.54896500     0.00600
Br1984     Br  0.28861338  0.25664583  0.50149636    -0.03800
C1985       C  0.39979845  0.25986262  0.28356434    -0.11200
C1986       C  0.39742262  0.24170114  0.28671424     0.04300
C1987       C  0.38813791  0.23612440  0.30155431    -0.11800
C1988       C  0.38117886  0.24833626  0.31337858     0.19100
C1989       C  0.38433165  0.26632004  0.31079780    -0.08800
C1990       C  0.39366344  0.27193272  0.29609614    -0.01800
H1991       H  0.38579116  0.22226171  0.30355256     0.05600
C1992       C  0.36893070  0.24241372  0.32710905     0.21100
H1993       H  0.39529204  0.28588058  0.29403700     0.10800
C1994       C  0.37489290  0.23969352  0.34431031    -0.15100
C1995       C  0.36309490  0.23566422  0.35783110     0.03800
C1996       C  0.34488295  0.23453419  0.35416367    -0.10500
C1997       C  0.33921094  0.23667017  0.33666669    -0.00500
C1998       C  0.35100683  0.24055744  0.32326726    -0.05600
H1999       H  0.38873689  0.24102300  0.34727024     0.06800
H2000       H  0.32541673  0.23571737  0.33333445     0.10200
Br2001     Br  0.37492371  0.28377015  0.32628940    -0.05300
Br2002     Br  0.40633141  0.22381455  0.27141278    -0.02300
Br2003     Br  0.37291455  0.23208252  0.38078038     0.00600
Br2004     Br  0.34196252  0.24397995  0.29995489    -0.03800
C2005       C  0.24914977  0.44794555  0.29012854    -0.11200
C2006       C  0.25557221  0.45769148  0.27567125     0.04300
C2007       C  0.25452126  0.47603023  0.27573300    -0.11800
C2008       C  0.24706684  0.48499089  0.28988429     0.19100
C2009       C  0.24015366  0.47539826  0.30402817    -0.08800
C2010       C  0.24142387  0.45705088  0.30418292    -0.01800
H2011       H  0.25983466  0.48337587  0.26482209     0.05600
C2012       C  0.24719620  0.50437790  0.28982980     0.21100
H2013       H  0.23618312  0.44988302  0.31524603     0.10800
C2014       C  0.23518738  0.51349309  0.27924304    -0.15100
C2015       C  0.23546192  0.53185803  0.27840305     0.03800
C2016       C  0.24801194  0.54135541  0.28823956    -0.10500
C2017       C  0.25985922  0.53215486  0.29900121    -0.00500
C2018       C  0.25961942  0.51382168  0.29973787    -0.05600
H2019       H  0.22557891  0.50629464  0.27165447     0.06800
H2020       H  0.26965114  0.53921244  0.30651370     0.10200
Br2021     Br  0.22854533  0.48688191  0.32314135    -0.05300
Br2022     Br  0.26685440  0.44711845  0.25581118    -0.02300
Br2023     Br  0.21782665  0.54317657  0.26432896     0.00600
Br2024     Br  0.27696940  0.50218559  0.31386832    -0.03800
C2025       C  0.30280454  0.37072543  0.26898089    -0.11200
C2026       C  0.31621274  0.38115361  0.26148344     0.04300
C2027       C  0.33184068  0.37326172  0.25581593    -0.11800
C2028       C  0.33424589  0.35506596  0.25718438     0.19100
C2029       C  0.32082584  0.34465472  0.26435810    -0.08800
C2030       C  0.30534857  0.35247313  0.27016527    -0.01800
H2031       H  0.34202571  0.38128585  0.25006299     0.05600
C2032       C  0.35061735  0.34687622  0.25085192     0.21100
H2033       H  0.29534242  0.34418310  0.27585604     0.10800
C2034       C  0.36559718  0.34698429  0.26158013    -0.15100
C2035       C  0.38033547  0.33682487  0.25732542     0.03800
C2036       C  0.38014219  0.32630157  0.24199492    -0.10500
C2037       C  0.36546910  0.32724962  0.23076169    -0.00500
C2038       C  0.35084398  0.33739192  0.23506066    -0.05600
H2039       H  0.36548124  0.35429931  0.27373679     0.06800
H2040       H  0.36503708  0.31951668  0.21886374     0.10200
Br2041     Br  0.32311459  0.31964761  0.26667407    -0.05300
Br2042     Br  0.31373130  0.40593641  0.25759554    -0.02300
Br2043     Br  0.39938609  0.33688031  0.27389494     0.00600
Br2044     Br  0.33103169  0.33715895  0.21944675    -0.03800
C2045       C  0.26181560  0.36064038  0.34031798    -0.11200
C2046       C  0.24826013  0.35341354  0.35068053     0.04300
C2047       C  0.25172099  0.33890161  0.36150902    -0.11800
C2048       C  0.26851722  0.33134721  0.36222470     0.19100
C2049       C  0.28221098  0.33912159  0.35254928    -0.08800
C2050       C  0.27884862  0.35378358  0.34204654    -0.01800
H2051       H  0.24109424  0.33304376  0.36888966     0.05600
C2052       C  0.27102307  0.31412065  0.37100724     0.21100
H2053       H  0.28940638  0.35892068  0.33406386     0.10800
C2054       C  0.26234429  0.29939562  0.36413949    -0.15100
C2055       C  0.26637777  0.28241843  0.36996731     0.03800
C2056       C  0.27967562  0.27992163  0.38276519    -0.10500
C2057       C  0.28739275  0.29484277  0.39049480    -0.00500
C2058       C  0.28294525  0.31180584  0.38496221    -0.05600
H2059       H  0.25289970  0.30106108  0.35362891     0.06800
H2060       H  0.29719378  0.29333292  0.40071461     0.10200
Br2061     Br  0.30521642  0.32891690  0.35116760    -0.05300
Br2062     Br  0.22476016  0.36248803  0.35043076    -0.02300
Br2063     Br  0.25392051  0.26346853  0.35889828     0.00600
Br2064     Br  0.29346614  0.33139189  0.39683120    -0.03800
C2065       C  0.21979476  0.03730214  0.26968587    -0.11200
C2066       C  0.20682210  0.02714759  0.26109916     0.04300
C2067       C  0.20693454  0.00885945  0.26289928    -0.11800
C2068       C  0.21959733  0.00046052  0.27332972     0.19100
C2069       C  0.23197077  0.01061865  0.28254940    -0.08800
C2070       C  0.23206720  0.02882797  0.28058252    -0.01800
H2071       H  0.19747886  0.00110053  0.25565498     0.05600
C2072       C  0.22088973  0.98112473  0.27288422     0.21100
H2073       H  0.24187886  0.03638468  0.28755953     0.10800
C2074       C  0.23549134  0.97353610  0.26478970    -0.15100
C2075       C  0.23709764  0.95533796  0.26324882     0.03800
C2076       C  0.22375218  0.94423127  0.26991963    -0.10500
C2077       C  0.20911048  0.95199239  0.27807470    -0.00500
C2078       C  0.20760467  0.97024416  0.27956368    -0.05600
H2079       H  0.24563780  0.98188379  0.25944410     0.06800
H2080       H  0.19874310  0.94387284  0.28333875     0.10200
Br2081     Br  0.24895090  0.00024049  0.29805138    -0.05300
Br2082     Br  0.18942578  0.03705664  0.24572983    -0.02300
Br2083     Br  0.25784705  0.94708978  0.25160411     0.00600
Br2084     Br  0.18742213  0.97971825  0.29117805    -0.03800
C2085       C  0.28269411  0.18041301  0.36927246    -0.11200
C2086       C  0.29160138  0.16406747  0.36902847     0.04300
C2087       C  0.28572029  0.15062589  0.35790446    -0.11800
C2088       C  0.27111555  0.15313667  0.34698580     0.19100
C2089       C  0.26195041  0.16911014  0.34757350    -0.08800
C2090       C  0.26766677  0.18248355  0.35869416    -0.01800
H2091       H  0.29273592  0.13829101  0.35752019     0.05600
C2092       C  0.26593756  0.13940376  0.33437718     0.21100
H2093       H  0.26064337  0.19482337  0.35849816     0.10800
C2094       C  0.25179954  0.12835821  0.33829715    -0.15100
C2095       C  0.24495172  0.11691173  0.32563331     0.03800
C2096       C  0.25219924  0.11666233  0.30853005    -0.10500
C2097       C  0.26708962  0.12705238  0.30512282    -0.00500
C2098       C  0.27394376  0.13832716  0.31785527    -0.05600
H2099       H  0.24575884  0.12902999  0.35109769     0.06800
H2100       H  0.27303378  0.12703359  0.29226259     0.10200
Br2101     Br  0.24212826  0.17364669  0.33263045    -0.05300
Br2102     Br  0.31177628  0.15897627  0.38332682    -0.02300
Br2103     Br  0.22568010  0.10234545  0.33279055     0.00600
Br2104     Br  0.29356677  0.15285920  0.31173816    -0.03800
C2105       C  0.06898568  0.26136041  0.20727993    -0.11200
C2106       C  0.05806157  0.25451175  0.22064204     0.04300
C2107       C  0.03982441  0.25626243  0.21931923    -0.11800
C2108       C  0.03208606  0.26458301  0.20484050     0.19100
C2109       C  0.04287060  0.27158930  0.19163074    -0.08800
C2110       C  0.06112778  0.26988155  0.19288187    -0.01800
H2111       H  0.03158747  0.25071844  0.22943790     0.05600
C2112       C  0.01271283  0.26510050  0.20357751     0.21100
H2113       H  0.06920459  0.27533514  0.18258177     0.10800
C2114       C  0.00325595  0.27624664  0.21470188    -0.15100
C2115       C  0.98486646  0.27588093  0.21497441     0.03800
C2116       C  0.97561805  0.26403283  0.20400854    -0.10500
C2117       C  0.98520021  0.25334218  0.19246502    -0.00500
C2118       C  0.00354813  0.25367762  0.19230944    -0.05600
H2119       H  0.01022340  0.28510045  0.22334693     0.06800
H2120       H  0.97844943  0.24412888  0.18402741     0.10200
Br2121     Br  0.03323837  0.28373170  0.17176138    -0.05300
Br2122     Br  0.06682793  0.24153492  0.24045974    -0.02300
Br2123     Br  0.97336722  0.29221390  0.23030089     0.00600
Br2124     Br  0.01554560  0.23738808  0.17737629    -0.03800
C2125       C  0.21095604  0.36440324  0.26560692    -0.11200
C2126       C  0.19297690  0.36828799  0.26784375     0.04300
C2127       C  0.18020183  0.35686858  0.26108358    -0.11800
C2128       C  0.18508297  0.34157478  0.25213247     0.19100
C2129       C  0.20295370  0.33801831  0.24934687    -0.08800
C2130       C  0.21569713  0.34942074  0.25597859    -0.01800
H2131       H  0.16644330  0.35977632  0.26303125     0.05600
C2132       C  0.17154887  0.32902842  0.24623282     0.21100
H2133       H  0.22940019  0.34618423  0.25413953     0.10800
C2134       C  0.16391021  0.33103667  0.22962641    -0.15100
C2135       C  0.15284254  0.31807369  0.22267660     0.03800
C2136       C  0.14927450  0.30268041  0.23254431    -0.10500
C2137       C  0.15629644  0.30130708  0.24960636    -0.00500
C2138       C  0.16736702  0.31425063  0.25641540    -0.05600
H2139       H  0.16711296  0.34244055  0.22177294     0.06800
H2140       H  0.15372718  0.28979392  0.25752752     0.10200
Br2141     Br  0.21052899  0.31740240  0.23703355    -0.05300
Br2142     Br  0.18508476  0.38920109  0.27939847    -0.02300
Br2143     Br  0.14407002  0.32213241  0.19935607     0.00600
Br2144     Br  0.17726746  0.31078182  0.27934418    -0.03800
C2145       C  0.18269262  0.13084905  0.26292865    -0.11200
C2146       C  0.18479658  0.14806878  0.26953258     0.04300
C2147       C  0.17291752  0.16116541  0.26470728    -0.11800
C2148       C  0.15866651  0.15745319  0.25364001     0.19100
C2149       C  0.15568986  0.14001262  0.24828572    -0.08800
C2150       C  0.16763099  0.12685494  0.25299648    -0.01800
H2151       H  0.17529485  0.17450951  0.26895182     0.05600
C2152       C  0.14882054  0.17234120  0.24596054     0.21100
H2153       H  0.16563946  0.11370946  0.24800810     0.10800
C2154       C  0.15019801  0.17534588  0.22786325    -0.15100
C2155       C  0.14381416  0.19079009  0.22029312     0.03800
C2156       C  0.13600564  0.20374329  0.23100900    -0.10500
C2157       C  0.13405098  0.20041241  0.24903268    -0.00500
C2158       C  0.14027969  0.18483028  0.25651661    -0.05600
H2159       H  0.15706546  0.16601194  0.21970896     0.06800
H2160       H  0.12795123  0.21010931  0.25740237     0.10200
Br2161     Br  0.13588665  0.13370808  0.23399922    -0.05300
Br2162     Br  0.20368032  0.15483649  0.28491638    -0.02300
Br2163     Br  0.14799076  0.19392990  0.19562114     0.00600
Br2164     Br  0.13699858  0.18125329  0.28120745    -0.03800
C2165       C  0.29499324  0.19621522  0.95106625    -0.11200
C2166       C  0.30634572  0.20691511  0.96121119     0.04300
C2167       C  0.30700125  0.20491976  0.97948799    -0.11800
C2168       C  0.29666365  0.19230946  0.98798264     0.19100
C2169       C  0.28582962  0.18124276  0.97790031    -0.08800
C2170       C  0.28515222  0.18316106  0.95963152    -0.01800
H2171       H  0.31535932  0.21347022  0.98715842     0.05600
C2172       C  0.29582877  0.19228726  0.00739688     0.21100
H2173       H  0.27635725  0.17484762  0.95219340     0.10800
C2174       C  0.28599020  0.20538912  0.01562389    -0.15100
C2175       C  0.28418587  0.20581735  0.03386826     0.03800
C2176       C  0.29261574  0.19298688  0.04443085    -0.10500
C2177       C  0.30253012  0.17982719  0.03605727    -0.00500
C2178       C  0.30419317  0.17942920  0.01771765    -0.05600
H2179       H  0.27938958  0.21519143  0.00773333     0.06800
H2180       H  0.30911254  0.16986996  0.04377167     0.10200
Br2181     Br  0.27084556  0.16412239  0.98864515    -0.05300
Br2182     Br  0.32157942  0.22425731  0.95109549    -0.02300
Br2183     Br  0.26916634  0.22386718  0.04300576     0.00600
Br2184     Br  0.31815813  0.16130113  0.00729233    -0.03800
C2185       C  0.33216353  0.21800102  0.12834357    -0.11200
C2186       C  0.34895303  0.21010026  0.12991858     0.04300
C2187       C  0.36151144  0.21728155  0.14137532    -0.11800
C2188       C  0.35777695  0.23230021  0.15130797     0.19100
C2189       C  0.34132813  0.24043965  0.14942026    -0.08800
C2190       C  0.32877063  0.23334126  0.13805548    -0.01800
H2191       H  0.37420563  0.21105265  0.14265751     0.05600
C2192       C  0.37095039  0.23928945  0.16383448     0.21100
H2193       H  0.31608935  0.23966827  0.13722216     0.10800
C2194       C  0.37944380  0.25515542  0.16004678    -0.15100
C2195       C  0.39027043  0.26336014  0.17248721     0.03800
C2196       C  0.39297508  0.25547451  0.18915014    -0.10500
C2197       C  0.38506501  0.23908629  0.19247099    -0.00500
C2198       C  0.37404073  0.23110580  0.18009516    -0.05600
H2199       H  0.37711904  0.26150018  0.14755247     0.06800
H2200       H  0.38677566  0.23275868  0.20506937     0.10200
Br2201     Br  0.33506519  0.26081719  0.16281341    -0.05300
Br2202     Br  0.35585322  0.18959314  0.11701134    -0.02300
Br2203     Br  0.40023124  0.28551745  0.16573544     0.00600
Br2204     Br  0.36233149  0.20977328  0.18658022    -0.03800
C2205       C  0.28000393  0.14837016  0.13599423    -0.11200
C2206       C  0.29083584  0.14498067  0.15072180     0.04300
C2207       C  0.28474900  0.13418679  0.16425734    -0.11800
C2208       C  0.26793438  0.12678680  0.16347714     0.19100
C2209       C  0.25763299  0.12913673  0.14831040    -0.08800
C2210       C  0.26378790  0.13967668  0.13461724    -0.01800
H2211       H  0.29272694  0.13240885  0.17587675     0.05600
C2212       C  0.26033774  0.11934676  0.17963888     0.21100
H2213       H  0.25528825  0.14209485  0.12347508     0.10800
C2214       C  0.24821469  0.12956752  0.18888033    -0.15100
C2215       C  0.24136419  0.12380066  0.20481553     0.03800
C2216       C  0.24677423  0.10755406  0.21187266    -0.10500
C2217       C  0.25900618  0.09731906  0.20268636    -0.00500
C2218       C  0.26567219  0.10304837  0.18653413    -0.05600
H2219       H  0.24430834  0.14224834  0.18379766     0.06800
H2220       H  0.26317850  0.08480067  0.20795188     0.10200
Br2221     Br  0.23457136  0.11921106  0.14634532    -0.05300
Br2222     Br  0.31376644  0.15511956  0.15351741    -0.02300
Br2223     Br  0.22566879  0.13931686  0.21695792     0.00600
Br2224     Br  0.28154439  0.08810899  0.17405376    -0.03800
C2225       C  0.23713510  0.21553021  0.11920674    -0.11200
C2226       C  0.22451844  0.20452835  0.12725258     0.04300
C2227       C  0.20989614  0.21191686  0.13547468    -0.11800
C2228       C  0.20732025  0.23014159  0.13578564     0.19100
C2229       C  0.21962051  0.24110438  0.12741779    -0.08800
C2230       C  0.23435017  0.23378349  0.11927931    -0.01800
H2231       H  0.20074480  0.20339711  0.14218907     0.05600
C2232       C  0.19262218  0.23737953  0.14626733     0.21100
H2233       H  0.24378753  0.24245033  0.11316811     0.10800
C2234       C  0.19650254  0.24791503  0.16085140    -0.15100
C2235       C  0.18326601  0.25372362  0.17208049     0.03800
C2236       C  0.16566087  0.24859671  0.16908610    -0.10500
C2237       C  0.16168987  0.23863223  0.15407771    -0.00500
C2238       C  0.17498205  0.23299386  0.14273719    -0.05600
H2239       H  0.20998909  0.25138829  0.16371183     0.06800
H2240       H  0.14829401  0.23462780  0.15149760     0.10200
Br2241     Br  0.21687865  0.26614750  0.12671682    -0.05300
Br2242     Br  0.22693548  0.17945275  0.12896161    -0.02300
Br2243     Br  0.19023458  0.26896064  0.19097130     0.00600
Br2244     Br  0.16840129  0.21924670  0.12267782    -0.03800
C2245       C  0.75271348  0.79497236  0.95066864    -0.11200
C2246       C  0.74085855  0.80644670  0.95915850     0.04300
C2247       C  0.73926627  0.80597347  0.97748719    -0.11800
C2248       C  0.74950369  0.79446025  0.98760460     0.19100
C2249       C  0.76172542  0.78351269  0.97924006    -0.08800
C2250       C  0.76312823  0.78372029  0.96098877    -0.01800
H2251       H  0.72987976  0.81447296  0.98386961     0.05600
C2252       C  0.74713640  0.79361638  0.00683338     0.21100
H2253       H  0.77254080  0.77505667  0.95485000     0.10800
C2254       C  0.73966180  0.77851347  0.01424053    -0.15100
C2255       C  0.73879208  0.77641479  0.03245795     0.03800
C2256       C  0.74547753  0.78964807  0.04361013    -0.10500
C2257       C  0.75212848  0.80514314  0.03612076    -0.00500
C2258       C  0.75307920  0.80715491  0.01789570    -0.05600
H2259       H  0.73480620  0.76819100  0.00580146     0.06800
H2260       H  0.75728058  0.81543562  0.04444730     0.10200
Br2261     Br  0.77717754  0.76840553  0.99226400    -0.05300
Br2262     Br  0.72590111  0.82247905  0.94668901    -0.02300
Br2263     Br  0.72783692  0.75546147  0.04118352     0.00600
Br2264     Br  0.76367595  0.82806544  0.00872772    -0.03800
C2265       C  0.82217161  0.94242913  0.72023915    -0.11200
C2266       C  0.80981872  0.95214893  0.71031384     0.04300
C2267       C  0.81013149  0.97049667  0.71077752    -0.11800
C2268       C  0.82249704  0.97949588  0.72102493     0.19100
C2269       C  0.83495400  0.96989054  0.73075707    -0.08800
C2270       C  0.83487716  0.95153252  0.73009591    -0.01800
H2271       H  0.80048337  0.97780863  0.70333428     0.05600
C2272       C  0.82112224  0.99879902  0.72245340     0.21100
H2273       H  0.84427819  0.94436233  0.73798585     0.10800
C2274       C  0.80657337  0.00588587  0.73104425    -0.15100
C2275       C  0.80438112  0.02402498  0.73259295     0.03800
C2276       C  0.81720242  0.03560255  0.72565628    -0.10500
C2277       C  0.83170822  0.02836117  0.71682473    -0.00500
C2278       C  0.83358764  0.01014704  0.71497840    -0.05600
H2279       H  0.79680731  0.99719533  0.73656108     0.06800
H2280       H  0.84150632  0.03686848  0.71109203     0.10200
Br2281     Br  0.85135017  0.98115865  0.74625439    -0.05300
Br2282     Br  0.79228486  0.94140854  0.69566529    -0.02300
Br2283     Br  0.78346225  0.03155423  0.74444551     0.00600
Br2284     Br  0.85281411  0.00132494  0.70140313    -0.03800
C2285       C  0.79136284  0.87105134  0.77502906    -0.11200
C2286       C  0.78330067  0.85437800  0.77688874     0.04300
C2287       C  0.77708499  0.84904203  0.79327363    -0.11800
C2288       C  0.77863242  0.85989931  0.80802071     0.19100
C2289       C  0.78613078  0.87665818  0.80616948    -0.08800
C2290       C  0.79238631  0.88210795  0.78980042    -0.01800
H2291       H  0.77152530  0.83603395  0.79467159     0.05600
C2292       C  0.77394598  0.85256650  0.82536304     0.21100
H2293       H  0.79836578  0.89496032  0.78873480     0.10800
C2294       C  0.78746054  0.84829757  0.83711830    -0.15100
C2295       C  0.78413180  0.83838870  0.85220971     0.03800
C2296       C  0.76687270  0.83249022  0.85575502    -0.10500
C2297       C  0.75322318  0.83758972  0.84434144    -0.00500
C2298       C  0.75663701  0.84758425  0.82930597    -0.05600
H2299       H  0.80082925  0.85190153  0.83404740     0.06800
H2300       H  0.73990652  0.83336932  0.84682980     0.10200
Br2301     Br  0.78808204  0.89249907  0.82562171    -0.05300
Br2302     Br  0.78115613  0.83751726  0.75822868    -0.02300
Br2303     Br  0.80420641  0.83197981  0.86613461     0.00600
Br2304     Br  0.73737231  0.85390830  0.81429983    -0.03800
C2305       C  0.97550651  0.72025477  0.79337624    -0.11200
C2306       C  0.98603064  0.70987025  0.78214933     0.04300
C2307       C  0.00435076  0.71100147  0.78315804    -0.11800
C2308       C  0.01254090  0.72229281  0.79516052     0.19100
C2309       C  0.00217823  0.73240843  0.80653816    -0.08800
C2310       C  0.98386834  0.73121733  0.80570084    -0.01800
H2311       H  0.01227163  0.70322264  0.77435215     0.05600
C2312       C  0.03183602  0.72427868  0.79464091     0.21100
H2313       H  0.97615765  0.73942826  0.81430630     0.10800
C2314       C  0.03927625  0.73393784  0.78092410    -0.15100
C2315       C  0.05745780  0.73614342  0.77970445     0.03800
C2316       C  0.06868798  0.72827929  0.79233516    -0.10500
C2317       C  0.06106166  0.71870658  0.80617997    -0.00500
C2318       C  0.04283750  0.71668065  0.80739522    -0.05600
H2319       H  0.03084200  0.73993184  0.77118165     0.06800
H2320       H  0.06927846  0.71259352  0.81603919     0.10200
Br2321     Br  0.01245058  0.74884846  0.82263754    -0.05300
Br2322     Br  0.97652893  0.69373859  0.76522847    -0.02300
Br2323     Br  0.06559739  0.75058094  0.76070981     0.00600
Br2324     Br  0.03355730  0.70312966  0.82645240    -0.03800
C2325       C  0.80770832  0.76414905  0.87973706    -0.11200
C2326       C  0.82429554  0.77210584  0.88243423     0.04300
C2327       C  0.83899914  0.76582672  0.87350128    -0.11800
C2328       C  0.83763484  0.75158783  0.86199832     0.19100
C2329       C  0.82151414  0.74275469  0.86029219    -0.08800
C2330       C  0.80671987  0.74901284  0.86917007    -0.01800
H2331       H  0.85143248  0.77249068  0.87501855     0.05600
C2332       C  0.85264245  0.74753770  0.85050630     0.21100
H2333       H  0.79425599  0.74258377  0.86700455     0.10800
C2334       C  0.86466052  0.73440918  0.85519990    -0.15100
C2335       C  0.87901224  0.73051030  0.84438627     0.03800
C2336       C  0.88144420  0.73992181  0.82855010    -0.10500
C2337       C  0.86950422  0.75335494  0.82423683    -0.00500
C2338       C  0.85523339  0.75714485  0.83499127    -0.05600
H2339       H  0.86275265  0.72707391  0.86718089     0.06800
H2340       H  0.87104591  0.76078430  0.81225082     0.10200
Br2341     Br  0.81887976  0.72288890  0.84504299    -0.05300
Br2342     Br  0.82802311  0.79168659  0.89786790    -0.02300
Br2343     Br  0.89404121  0.71162561  0.85165940     0.00600
Br2344     Br  0.83926980  0.77525042  0.82766791    -0.03800
C2345       C  0.90844394  0.77235368  0.75745986    -0.11200
C2346       C  0.91813635  0.78811497  0.75927152     0.04300
C2347       C  0.91056414  0.80413674  0.75427690    -0.11800
C2348       C  0.89351766  0.80467317  0.74736945     0.19100
C2349       C  0.88442276  0.78892030  0.74429841    -0.08800
C2350       C  0.89192460  0.77294630  0.74922242    -0.01800
H2351       H  0.91771510  0.81623309  0.75637096     0.05600
C2352       C  0.88458687  0.82164187  0.74483004     0.21100
H2353       H  0.88426541  0.76108488  0.74762725     0.10800
C2354       C  0.88620412  0.83058108  0.72885397    -0.15100
C2355       C  0.87553043  0.84509031  0.72502597     0.03800
C2356       C  0.86308427  0.85090767  0.73748778    -0.10500
C2357       C  0.86240352  0.84245925  0.75390452    -0.00500
C2358       C  0.87286871  0.82789455  0.75755758    -0.05600
H2359       H  0.89525259  0.82578608  0.71904676     0.06800
H2360       H  0.85300070  0.84656123  0.76369669     0.10200
Br2361     Br  0.86112535  0.78877923  0.73462396    -0.05300
Br2362     Br  0.94161223  0.78873726  0.76850498    -0.02300
Br2363     Br  0.87847029  0.85588892  0.70246806     0.00600
Br2364     Br  0.86973750  0.81612349  0.77962779    -0.03800
C2365       C  0.56681525  0.69987217  0.77175256    -0.11200
C2366       C  0.55584604  0.71288209  0.76421893     0.04300
C2367       C  0.53761375  0.71095319  0.76478540    -0.11800
C2368       C  0.52984488  0.69637023  0.77285041     0.19100
C2369       C  0.54064207  0.68341178  0.78040075    -0.08800
C2370       C  0.55893973  0.68519736  0.77976036    -0.01800
H2371       H  0.52939676  0.72086410  0.75878116     0.05600
C2372       C  0.51044288  0.69509513  0.77292349     0.30700
H2373       H  0.56702174  0.67511151  0.78566168     0.10800
C2374       C  0.50202615  0.68244834  0.76248083    -0.15100
C2375       C  0.48371877  0.68249285  0.76039420     0.03800
C2376       C  0.47352541  0.69555955  0.76875831    -0.10500
C2377       C  0.48204263  0.70772707  0.77974970    -0.00500
C2378       C  0.50024667  0.70752628  0.78192470    -0.05600
H2379       H  0.50978604  0.67290662  0.75542766     0.06800
H2380       H  0.47453663  0.71765014  0.78655461     0.10200
Br2381     Br  0.53098792  0.66338279  0.79218268    -0.05300
Br2382     Br  0.56453150  0.73323861  0.75212407    -0.02300
Br2383     Br  0.47386143  0.66515410  0.74496240     0.00600
Br2384     Br  0.51064197  0.72457969  0.79730834    -0.03800
C2385       C  0.64924290  0.72827887  0.81246353    -0.11200
C2386       C  0.65132234  0.72033157  0.82917644     0.04300
C2387       C  0.66280064  0.72775103  0.84154907    -0.11800
C2388       C  0.67216935  0.74309098  0.83770865     0.19100
C2389       C  0.66954917  0.75145860  0.82148374    -0.08800
C2390       C  0.65813831  0.74413042  0.80909942    -0.01800
H2391       H  0.66477053  0.72129381  0.85404894     0.05600
C2392       C  0.68603376  0.74920873  0.84983708     0.21100
H2393       H  0.65683051  0.75053598  0.79649386     0.10800
C2394       C  0.70294198  0.74239297  0.84787301    -0.15100
C2395       C  0.71705386  0.74904002  0.85756153     0.03800
C2396       C  0.71429531  0.76280155  0.86979156    -0.10500
C2397       C  0.69708115  0.76912436  0.87216294    -0.00500
C2398       C  0.68304933  0.76251081  0.86222622    -0.05600
H2399       H  0.70527242  0.73222726  0.83825118     0.06800
H2400       H  0.69456494  0.77961280  0.88136020     0.10200
Br2401     Br  0.68212444  0.77239490  0.81530639    -0.05300
Br2402     Br  0.63915340  0.69938975  0.83614290    -0.02300
Br2403     Br  0.73963571  0.73909284  0.85232659     0.00600
Br2404     Br  0.66018253  0.77249223  0.86535678    -0.03800
C2405       C  0.78872310  0.53618010  0.71011029    -0.11200
C2406       C  0.79200196  0.52715707  0.69419534     0.04300
C2407       C  0.79197681  0.50876208  0.69388408    -0.11800
C2408       C  0.78888350  0.49900440  0.70915432     0.19100
C2409       C  0.78626547  0.50786977  0.72511133    -0.08800
C2410       C  0.78615671  0.52622787  0.72547899    -0.01800
H2411       H  0.79432431  0.50200112  0.68163531     0.05600
C2412       C  0.78825656  0.47960125  0.70820952     0.21100
H2413       H  0.78374127  0.53270725  0.73786020     0.10800
C2414       C  0.80150689  0.46973332  0.71636453    -0.15100
C2415       C  0.80075258  0.45137795  0.71664697     0.03800
C2416       C  0.78651721  0.44257778  0.70862202    -0.10500
C2417       C  0.77367749  0.45247478  0.69978872    -0.00500
C2418       C  0.77441099  0.47083690  0.69960613    -0.05600
H2419       H  0.81236669  0.47635198  0.72266064     0.06800
H2420       H  0.76272146  0.44595725  0.69352676     0.10200
Br2421     Br  0.78207573  0.49547654  0.74664714    -0.05300
Br2422     Br  0.79699086  0.53877061  0.67240535    -0.02300
Br2423     Br  0.81995750  0.43913070  0.72751641     0.00600
Br2424     Br  0.75568576  0.48338562  0.68829727    -0.03800
C2425       C  0.83191930  0.61541144  0.73616343    -0.11200
C2426       C  0.84117551  0.62791619  0.72610642     0.04300
C2427       C  0.85423471  0.63812742  0.73398351    -0.11800
C2428       C  0.85884293  0.63582813  0.75168208     0.19100
C2429       C  0.85019785  0.62272804  0.76151282    -0.08800
C2430       C  0.83672682  0.61283402  0.75378767    -0.01800
H2431       H  0.86039969  0.64839560  0.72637136     0.05600
C2432       C  0.87122953  0.64853835  0.75985784     0.21100
H2433       H  0.82985093  0.60320921  0.76164319     0.10800
C2434       C  0.86538556  0.65884280  0.77394368    -0.15100
C2435       C  0.87557958  0.67263364  0.78053431     0.03800
C2436       C  0.89188176  0.67663309  0.77272598    -0.10500
C2437       C  0.89791910  0.66612407  0.75889066    -0.00500
C2438       C  0.88786695  0.65207360  0.75256720    -0.05600
H2439       H  0.85248754  0.65664543  0.77936669     0.06800
H2440       H  0.91044029  0.66893843  0.75287815     0.10200
Br2441     Br  0.85629332  0.61773236  0.78545948    -0.05300
Br2442     Br  0.83566960  0.63299360  0.70201434    -0.02300
Br2443     Br  0.86557705  0.68654470  0.79900022     0.00600
Br2444     Br  0.89751995  0.63815026  0.73396916    -0.03800
C2445       C  0.73291980  0.60692104  0.73682093    -0.11200
C2446       C  0.73136938  0.61753246  0.75200229     0.04300
C2447       C  0.71521989  0.62519964  0.75614267    -0.11800
C2448       C  0.70025836  0.62222609  0.74579511     0.19100
C2449       C  0.70146012  0.61067334  0.73143081    -0.08800
C2450       C  0.71765467  0.60325185  0.72701481    -0.01800
H2451       H  0.71450498  0.63413496  0.76715122     0.05600
C2452       C  0.68435224  0.63303960  0.74892225     0.21100
H2453       H  0.71834613  0.59491033  0.71553781     0.10800
C2454       C  0.67897514  0.64479653  0.73578906    -0.15100
C2455       C  0.66568576  0.65706521  0.73881363     0.03800
C2456       C  0.65736817  0.65774589  0.75536521    -0.10500
C2457       C  0.66247057  0.64567605  0.76838589    -0.00500
C2458       C  0.67579824  0.63339230  0.76528990    -0.05600
H2459       H  0.68576485  0.64500377  0.72333743     0.06800
H2460       H  0.65629423  0.64600035  0.78114818     0.10200
Br2461     Br  0.68138439  0.60469976  0.71737040    -0.05300
Br2462     Br  0.75064655  0.62306740  0.76735465    -0.02300
Br2463     Br  0.66117000  0.67370851  0.72035743     0.00600
Br2464     Br  0.68192225  0.61748940  0.78386599    -0.03800
C2465       C  0.72568544  0.75781044  0.54638793    -0.11200
C2466       C  0.73804350  0.74848130  0.53611146     0.04300
C2467       C  0.73822716  0.75063606  0.51792658    -0.11800
C2468       C  0.72652497  0.76206935  0.50954615     0.19100
C2469       C  0.71428113  0.77145509  0.51961643    -0.08800
C2470       C  0.71388477  0.76923748  0.53785884    -0.01800
H2471       H  0.74750962  0.74322922  0.51020945     0.05600
C2472       C  0.72689502  0.76312621  0.49018960     0.21100
H2473       H  0.70445063  0.77665704  0.54538260     0.10800
C2474       C  0.71291898  0.75599597  0.48056993    -0.15100
C2475       C  0.71372393  0.75459321  0.46228691     0.03800
C2476       C  0.72888520  0.76037804  0.45326669    -0.10500
C2477       C  0.74265837  0.76797724  0.46300012    -0.00500
C2478       C  0.74174925  0.76940043  0.48126030    -0.05600
H2479       H  0.70157357  0.75092306  0.48739589     0.06800
H2480       H  0.75429740  0.77269603  0.45642789     0.10200
Br2481     Br  0.69834849  0.78789866  0.50907739    -0.05300
Br2482     Br  0.75502814  0.73229462  0.54550071    -0.02300
Br2483     Br  0.69407779  0.74352945  0.45094400     0.00600
Br2484     Br  0.76110701  0.78001480  0.49347387    -0.03800
C2485       C  0.75638504  0.79638370  0.62510795    -0.11200
C2486       C  0.75382916  0.81436042  0.62115422     0.04300
C2487       C  0.76170043  0.82721353  0.63170305    -0.11800
C2488       C  0.77218722  0.82244548  0.64605751     0.19100
C2489       C  0.77548497  0.80463379  0.64946442    -0.08800
C2490       C  0.76771315  0.79180016  0.63898201    -0.01800
H2491       H  0.75933852  0.84095650  0.62894704     0.05600
C2492       C  0.77868384  0.83601288  0.65817054     0.21100
H2493       H  0.76996780  0.77814161  0.64224608     0.10800
C2494       C  0.76937138  0.83909552  0.67364164    -0.15100
C2495       C  0.77606698  0.85020678  0.68660952     0.03800
C2496       C  0.79242760  0.85867469  0.68402648    -0.10500
C2497       C  0.80136812  0.85598016  0.66811616    -0.00500
C2498       C  0.79465346  0.84468841  0.65528619    -0.05600
H2499       H  0.75714336  0.83223681  0.67592555     0.06800
H2500       H  0.81389733  0.86224733  0.66583000     0.10200
Br2501     Br  0.78993970  0.79724226  0.66878754    -0.05300
Br2502     Br  0.74003348  0.82233908  0.60158554    -0.02300
Br2503     Br  0.76267558  0.85172662  0.70788944     0.00600
Br2504     Br  0.80815329  0.84061014  0.63450338    -0.03800
C2505       C  0.74728154  0.70315871  0.62050929    -0.11200
C2506       C  0.76540167  0.69916747  0.61995239     0.04300
C2507       C  0.77176004  0.68414814  0.62845085    -0.11800
C2508       C  0.76038677  0.67293819  0.63753580     0.19100
C2509       C  0.74229448  0.67662469  0.63771532    -0.08800
C2510       C  0.73586465  0.69146899  0.62903533    -0.01800
H2511       H  0.78569719  0.68143147  0.62836878     0.05600
C2512       C  0.76775991  0.65875919  0.64853753     0.21100
H2513       H  0.72199971  0.69437143  0.62980715     0.10800
C2514       C  0.77638136  0.66339385  0.66408466    -0.15100
C2515       C  0.78155762  0.65061634  0.67618458     0.03800
C2516       C  0.77801774  0.63265128  0.67281281    -0.10500
C2517       C  0.77044286  0.62800704  0.65659009    -0.00500
C2518       C  0.76534133  0.64091193  0.64448313    -0.05600
H2519       H  0.77856347  0.67709365  0.66709067     0.06800
H2520       H  0.76784863  0.61436927  0.65356757     0.10200
Br2521     Br  0.72608729  0.66275734  0.65108673    -0.05300
Br2522     Br  0.78220139  0.71350980  0.60784676    -0.02300
Br2523     Br  0.79326136  0.65900708  0.69693848     0.00600
Br2524     Br  0.75482129  0.63371801  0.62274369    -0.03800
C2525       C  0.68129431  0.75251311  0.63948250    -0.11200
C2526       C  0.67062706  0.73739927  0.64111478     0.04300
C2527       C  0.66060195  0.73494307  0.65627271    -0.11800
C2528       C  0.66072698  0.74740590  0.66981023     0.19100
C2529       C  0.67010773  0.76314362  0.66752036    -0.08800
C2530       C  0.68030256  0.76556332  0.65250331    -0.01800
H2531       H  0.65349615  0.72278669  0.65795234     0.05600
C2532       C  0.65331304  0.74254662  0.68707154     0.21100
H2533       H  0.68809235  0.77738358  0.65139362     0.10800
C2534       C  0.66487828  0.74042256  0.70125422    -0.15100
C2535       C  0.65903071  0.73414468  0.71742551     0.03800
C2536       C  0.64114550  0.72970301  0.71964944    -0.10500
C2537       C  0.62951204  0.73208632  0.70545164    -0.00500
C2538       C  0.63545035  0.73848440  0.68928366    -0.05600
H2539       H  0.67870844  0.74315129  0.69954789     0.06800
H2540       H  0.61576015  0.72882473  0.70686663     0.10200
Br2541     Br  0.66991151  0.78139233  0.68488003    -0.05300
Br2542     Br  0.67039188  0.71866889  0.62425894    -0.02300
Br2543     Br  0.67665727  0.73070922  0.73521062     0.00600
Br2544     Br  0.61874625  0.74161704  0.67065001    -0.03800
loop_ 
_geom_bond_atom_site_label_1 
_geom_bond_atom_site_label_2 
_geom_bond_distance 
_geom_bond_site_symmetry_2 
_ccdc_geom_bond_type 
O1            C4   1.265       .  A
O1           Cd6   2.433       .  S
C2           O11   1.266       .  A
C2            O7   1.264       .  A
C2         C2505   1.481       .  S
O3            C9   1.263       .  A
O3           Cd6   2.443       .  S
C4           O12   1.266       .  A
C4         C2485   1.480       .  S
C5           O10   1.266       .  A
C5            O8   1.259       .  A
C5         C2465   1.485       .  S
Cd6          O13   2.482       .  S
Cd6          O12   2.463       .  S
Cd6          O11   2.472       .  S
Cd6           O7   2.449       .  S
Cd6          O10   2.500       .  S
Cd6           O8   2.427       .  S
C9           O13   1.266       .  A
C9         C2525   1.483       .  S
O14          C17   1.266       .  A
O14         Cd19   2.468       .  S
C15          O24   1.266       .  A
C15          O20   1.264       .  A
C15        C2445   1.489       .  S
O16          C22   1.270       .  A
O16         Cd19   2.504       .  S
C17          O25   1.265       .  A
C17        C2425   1.479       .  S
C18          O23   1.265       .  A
C18          O21   1.265       .  A
C18        C2405   1.490       .  S
Cd19         O26   2.418       .  S
Cd19         O25   2.457       .  S
Cd19         O24   2.468       .  S
Cd19         O20   2.465       .  S
Cd19         O23   2.480       .  S
Cd19         O21   2.466       .  S
C22          O26   1.261       .  A
C22        C2516   1.485       .  S
O27          C30   1.265       .  A
O27         Cd32   2.476       .  S
C28          O37   1.266       .  A
C28          O33   1.264       .  A
C28        C2536   1.483       .  S
O29          C35   1.262       .  A
O29         Cd32   2.465       .  S
C30          O38   1.266       .  A
C30        C2385   1.489       .  S
C31          O36   1.266       .  A
C31          O34   1.262       .  A
C31        C2365   1.487       .  S
Cd32         O39   2.488       .  S
Cd32         O38   2.464       .  S
Cd32         O37   2.477       .  S
Cd32         O33   2.447       .  S
Cd32         O36   2.491       .  S
Cd32         O34   2.464       .  S
C35          O39   1.265       .  A
C35        C2456   1.483       .  S
O40          C43   1.267       .  A
O40         Cd45   2.479       .  S
C41          O50   1.264       .  A
C41          O46   1.267       .  A
C41        C2345   1.481       .  S
O42          C48   1.269       .  A
O42         Cd45   2.495       .  S
C43          O51   1.263       .  A
C43        C2436   1.479       .  S
C44          O49   1.267       .  A
C44          O47   1.264       .  A
C44        C2305   1.487       .  S
Cd45         O52   2.421       .  S
Cd45         O51   2.458       .  S
Cd45         O50   2.451       .  S
Cd45         O46   2.466       .  S
Cd45         O49   2.479       .  S
Cd45         O47   2.461       .  S
C48          O52   1.264       .  A
C48        C2336   1.485       .  S
O53          C56   1.264       .  A
O53         Cd58   2.440       .  S
C54          O63   1.267       .  A
C54          O59   1.263       .  A
C54        C2285   1.485       .  S
O55          C61   1.265       .  A
O55         Cd58   2.488       .  S
C56          O64   1.267       .  A
C56        C2496   1.482       .  S
C57          O62   1.265       .  A
C57          O60   1.261       .  A
C57        C2265   1.481       .  S
Cd58         O65   2.436       .  S
Cd58         O64   2.463       .  S
Cd58         O63   2.472       .  S
Cd58         O59   2.441       .  S
Cd58         O62   2.484       .  S
Cd58         O60   2.454       .  S
C61          O65   1.263       .  A
C61        C2356   1.484       .  S
O66          C69   1.263       .  A
O66         Cd71   2.424       .  S
C67          O76   1.263       .  A
C67          O72   1.267       .  A
C67        C2325   1.485       .  S
O68          C74   1.264       .  A
O68         Cd71   2.474       .  S
C69          O77   1.268       .  A
C69        C2396   1.488       .  S
C70          O75   1.265       .  A
C70          O73   1.263       .  A
C70        C2245   1.484       .  S
Cd71         O78   2.475       .  S
Cd71         O77   2.487       .  S
Cd71         O76   2.445       .  S
Cd71         O72   2.486       .  S
Cd71         O75   2.499       .  S
Cd71         O73   2.450       .  S
C74          O78   1.264       .  A
C74        C2296   1.485       .  S
O79          C82   1.267       .  A
O79         Cd84   2.458       .  S
C80          O89   1.263       .  A
C80          O85   1.266       .  A
C80        C2225   1.485       .  S
O81          C87   1.266       .  A
O81         Cd84   2.513       .  S
C82          O90   1.266       .  A
C82        C2185   1.491       .  S
C83          O88   1.268       .  A
C83          O86   1.262       .  A
C83        C2205   1.479       .  S
Cd84         O91   2.455       .  S
Cd84         O90   2.474       .  S
Cd84         O89   2.458       .  S
Cd84         O85   2.482       .  S
Cd84         O88   2.487       .  S
Cd84         O86   2.436       .  S
C87          O91   1.262       .  A
C87        C2176   1.491       .  S
O92          C95   1.267       .  A
O92         Cd97   2.449       .  S
C93         O102   1.264       .  A
C93          O98   1.267       .  A
C93        C2156   1.477       .  S
O94         C100   1.269       .  A
O94         Cd97   2.485       .  S
C95         O103   1.265       .  A
C95        C2136   1.487       .  S
C96         O101   1.271       .  A
C96          O99   1.262       .  A
C96        C2236   1.482       .  S
Cd97        O104   2.448       .  S
Cd97        O103   2.462       .  S
Cd97        O102   2.445       .  S
Cd97         O98   2.461       .  S
Cd97        O101   2.505       .  S
Cd97         O99   2.416       .  S
C100        O104   1.263       .  A
C100       C2105   1.485       .  S
O105        C108   1.264       .  A
O105       Cd110   2.493       .  S
C106        O115   1.265       .  A
C106        O111   1.267       .  A
C106       C2096   1.486       .  S
O107        C113   1.269       .  A
O107       Cd110   2.483       .  S
C108        O116   1.261       .  A
C108       C2216   1.472       .  S
C109        O114   1.264       .  A
C109        O112   1.264       .  A
C109       C2065   1.478       .  S
Cd110       O117   2.412       .  S
Cd110       O116   2.444       .  S
Cd110       O115   2.461       .  S
Cd110       O111   2.449       .  S
Cd110       O114   2.476       .  S
Cd110       O112   2.441       .  S
C113        O117   1.263       .  A
C113       C2145   1.479       .  S
O118        C121   1.264       .  A
O118       Cd123   2.445       .  S
C119        O128   1.266       .  A
C119        O124   1.265       .  A
C119       C2125   1.479       .  S
O120        C126   1.265       .  A
O120       Cd123   2.466       .  S
C121        O129   1.266       .  A
C121       C2025   1.485       .  S
C122        O127   1.266       .  A
C122        O125   1.263       .  A
C122       C2005   1.485       .  S
Cd123       O130   2.474       .  S
Cd123       O129   2.490       .  S
Cd123       O128   2.474       .  S
Cd123       O124   2.454       .  S
Cd123       O127   2.495       .  S
Cd123       O125   2.461       .  S
C126        O130   1.264       .  A
C126       C2045   1.484       .  S
O131        C134   1.265       .  A
O131       Cd136   2.479       .  S
C132        O141   1.265       .  A
C132        O137   1.267       .  A
C132       C2085   1.485       .  S
O133        C139   1.269       .  A
O133       Cd136   2.500       .  S
C134        O142   1.266       .  A
C134       C2056   1.488       .  S
C135        O140   1.269       .  A
C135        O138   1.263       .  A
C135       C1965   1.493       .  S
Cd136       O143   2.425       .  S
Cd136       O142   2.465       .  S
Cd136       O141   2.466       .  S
Cd136       O137   2.443       .  S
Cd136       O140   2.496       .  S
Cd136       O138   2.456       .  S
C139        O143   1.263       .  A
C139       C1996   1.489       .  S
O144        C147   1.266       .  A
O144       Cd149   2.476       .  S
C145        O154   1.265       .  A
C145        O150   1.267       .  A
C145       C2196   1.492       .  S
O146        C152   1.263       .  A
O146       Cd149   2.444       .  S
C147        O155   1.265       .  A
C147       C1985   1.484       .  S
C148        O153   1.265       .  A
C148        O151   1.264       .  A
C148       C1956   1.488       .  S
Cd149       O156   2.499       .  S
Cd149       O155   2.449       .  S
Cd149       O154   2.471       .  S
Cd149       O150   2.472       .  S
Cd149       O153   2.500       .  S
Cd149       O151   2.471       .  S
C152        O156   1.266       .  A
C152       C2036   1.487       .  S
O157        C160   1.265       .  A
O157       Cd162   2.456       .  S
C158        O167   1.265       .  A
C158        O163   1.264       .  A
C158       C1885   1.486       .  S
O159        C165   1.267       .  A
O159       Cd162   2.507       .  S
C160        O168   1.268       .  A
C160       C1916   1.487       .  S
C161        O166   1.265       .  A
C161        O164   1.263       .  A
C161       C2376   1.487       .  S
Cd162       O169   2.445       .  S
Cd162       O168   2.470       .  S
Cd162       O167   2.478       .  S
Cd162       O163   2.472       .  S
Cd162       O166   2.503       .  S
Cd162       O164   2.455       .  S
C165        O169   1.261       .  A
C165       C1925   1.484       .  S
O170        C173   1.267       .  A
O170       Cd175   2.475       .  S
C171        O180   1.266       .  A
C171        O176   1.264       .  A
C171       C1856   1.483       .  S
O172        C178   1.266       .  A
O172       Cd175   2.500       .  S
C173        O181   1.265       .  A
C173       C1865   1.485       .  S
C174        O179   1.266       .  A
C174        O177   1.263       .  A
C174       C1825   1.489       .  S
Cd175       O182   2.434       .  S
Cd175       O181   2.462       .  S
Cd175       O180   2.474       .  S
Cd175       O176   2.449       .  S
Cd175       O179   2.481       .  S
Cd175       O177   2.460       .  S
C178        O182   1.263       .  A
C178       C1905   1.484       .  S
O183        C186   1.266       .  A
O183       Cd188   2.473       .  S
C184        O193   1.267       .  A
C184        O189   1.266       .  A
C184       C1805   1.489       .  S
O185        C191   1.262       .  A
O185       Cd188   2.447       .  S
C186        O194   1.263       .  A
C186       C1936   1.488       .  S
C187        O192   1.266       .  A
C187        O190   1.262       .  A
C187       C1796   1.479       .  S
Cd188       O195   2.496       .  S
Cd188       O194   2.457       .  S
Cd188       O193   2.458       .  S
Cd188       O189   2.471       .  S
Cd188       O192   2.497       .  S
Cd188       O190   2.451       .  S
C191        O195   1.264       .  A
C191       C1876   1.480       .  S
O196        C199   1.266       .  A
O196       Cd201   2.480       .  S
C197        O206   1.266       .  A
C197        O202   1.266       .  A
C197       C1845   1.488       .  S
O198        C204   1.268       .  A
O198       Cd201   2.509       .  S
C199        O207   1.264       .  A
C199       C1745   1.487       .  S
C200        O205   1.264       .  A
C200        O203   1.266       .  A
C200       C1736   1.488       .  S
Cd201       O208   2.435       .  S
Cd201       O207   2.465       .  S
Cd201       O206   2.455       .  S
Cd201       O202   2.475       .  S
Cd201       O205   2.472       .  S
Cd201       O203   2.482       .  S
C204        O208   1.261       .  A
C204       C1765   1.487       .  S
O209        C212   1.266       .  A
O209       Cd214   2.488       .  S
C210        O219   1.268       .  A
C210        O215   1.263       .  A
C210       C1816   1.489       .  S
O211        C217   1.265       .  A
O211       Cd214   2.468       .  S
C212        O220   1.263       .  A
C212       C1776   1.485       .  S
C213        O218   1.265       .  A
C213        O216   1.262       .  A
C213       C2316   1.489       .  S
Cd214       O221   2.466       .  S
Cd214       O220   2.454       .  S
Cd214       O219   2.480       .  S
Cd214       O215   2.443       .  S
Cd214       O218   2.489       .  S
Cd214       O216   2.463       .  S
C217        O221   1.263       .  A
C217       C1705   1.479       .  S
O222        C225   1.264       .  A
O222       Cd227   2.447       .  S
C223        O232   1.267       .  A
C223        O228   1.263       .  A
C223       C1896   1.489       .  S
O224        C230   1.267       .  A
O224       Cd227   2.502       .  S
C225        O233   1.267       .  A
C225       C1716   1.484       .  S
C226        O231   1.265       .  A
C226        O229   1.261       .  A
C226       C1685   1.486       .  S
Cd227       O234   2.446       .  S
Cd227       O233   2.466       .  S
Cd227       O232   2.482       .  S
Cd227       O228   2.442       .  S
Cd227       O231   2.490       .  S
Cd227       O229   2.464       .  S
C230        O234   1.260       .  A
C230       C1756   1.489       .  S
O235        C238   1.266       .  A
O235       Cd240   2.450       .  S
C236        O245   1.267       .  A
C236        O241   1.266       .  A
C236       C1645   1.482       .  S
O237        C243   1.269       .  A
O237       Cd240   2.526       .  S
C238        O246   1.265       .  A
C238       C1636   1.480       .  S
C239        O244   1.266       .  A
C239        O242   1.263       .  A
C239       C1976   1.484       .  S
Cd240       O247   2.413       .  S
Cd240       O246   2.458       .  S
Cd240       O245   2.477       .  S
Cd240       O241   2.464       .  S
Cd240       O244   2.509       .  S
Cd240       O242   2.460       .  S
C243        O247   1.261       .  A
C243       C1665   1.483       .  S
O248        C251   1.266       .  A
O248       Cd253   2.493       .  S
C249        O258   1.264       .  A
C249        O254   1.266       .  A
C249       C1605   1.482       .  S
O250        C256   1.264       .  A
O250       Cd253   2.492       .  S
C251        O259   1.264       .  A
C251       C1585   1.483       .  S
C252        O257   1.266       .  A
C252        O255   1.264       .  A
C252       C1785   1.488       .  S
Cd253       O260   2.452       .  S
Cd253       O259   2.445       .  S
Cd253       O258   2.460       .  S
Cd253       O254   2.483       .  S
Cd253       O257   2.482       .  S
Cd253       O255   2.474       .  S
C256        O260   1.264       .  A
C256       C1656   1.489       .  S
O261        C264   1.266       .  A
O261       Cd266   2.449       .  S
C262        O271   1.265       .  A
C262        O267   1.266       .  A
C262       C1676   1.482       .  S
O263        C269   1.266       .  A
O263       Cd266   2.482       .  S
C264        O272   1.266       .  A
C264       C1565   1.476       .  S
C265        O270   1.266       .  A
C265        O268   1.259       .  A
C265       C1545   1.489       .  S
Cd266       O273   2.452       .  S
Cd266       O272   2.448       .  S
Cd266       O271   2.462       .  S
Cd266       O267   2.460       .  S
Cd266       O270   2.509       .  S
Cd266       O268   2.438       .  S
C269        O273   1.262       .  A
C269       C1616   1.480       .  S
O274        C277   1.266       .  A
O274       Cd279   2.477       .  S
C275        O284   1.265       .  A
C275        O280   1.265       .  A
C275       C1525   1.488       .  S
O276        C282   1.266       .  A
O276       Cd279   2.478       .  S
C277        O285   1.266       .  A
C277       C1596   1.488       .  S
C278        O283   1.263       .  A
C278        O281   1.264       .  A
C278       C1485   1.484       .  S
Cd279       O286   2.465       .  S
Cd279       O285   2.467       .  S
Cd279       O284   2.486       .  S
Cd279       O280   2.458       .  S
Cd279       O283   2.485       .  S
Cd279       O281   2.482       .  S
C282        O286   1.263       .  A
C282       C1505   1.485       .  S
O287        C290   1.266       .  A
O287       Cd292   2.487       .  S
C288        O297   1.268       .  A
C288        O293   1.267       .  A
C288       C1625   1.485       .  S
O289        C295   1.265       .  A
O289       Cd292   2.505       .  S
C290        O298   1.264       .  A
C290       C1476   1.488       .  S
C291        O296   1.264       .  A
C291        O294   1.263       .  A
C291       C1536   1.491       .  S
Cd292       O299   2.472       .  S
Cd292       O298   2.450       .  S
Cd292       O297   2.473       .  S
Cd292       O293   2.455       .  S
Cd292       O296   2.497       .  S
Cd292       O294   2.460       .  S
C295        O299   1.263       .  A
C295       C1725   1.488       .  S
O300        C303   1.264       .  A
O300       Cd305   2.480       .  S
C301        O310   1.267       .  A
C301        O306   1.265       .  A
C301       C1516   1.487       .  S
O302        C308   1.269       .  A
O302       Cd305   2.514       .  S
C303        O311   1.265       .  A
C303       C1576   1.488       .  S
C304        O309   1.266       .  A
C304        O307   1.263       .  A
C304       C2165   1.487       .  S
Cd305       O312   2.442       .  S
Cd305       O311   2.460       .  S
Cd305       O310   2.475       .  S
Cd305       O306   2.460       .  S
Cd305       O309   2.494       .  S
Cd305       O307   2.472       .  S
C308        O312   1.262       .  A
C308       C1465   1.486       .  S
O313        C316   1.267       .  A
O313       Cd318   2.441       .  S
C314        O323   1.264       .  A
C314        O319   1.264       .  A
C314       C1425   1.485       .  S
O315        C321   1.265       .  A
O315       Cd318   2.480       .  S
C316        O324   1.266       .  A
C316       C1405   1.486       .  S
C317        O322   1.267       .  A
C317        O320   1.262       .  A
C317       C1445   1.475       .  S
Cd318       O325   2.455       .  S
Cd318       O324   2.473       .  S
Cd318       O323   2.486       .  S
Cd318       O319   2.475       .  S
Cd318       O322   2.490       .  S
Cd318       O320   2.428       .  S
C321        O325   1.264       .  A
C321       C2416   1.479       .  S
O326        C329   1.266       .  A
O326       Cd331   2.468       .  S
C327        O336   1.264       .  A
C327        O332   1.266       .  A
C327       C1365   1.477       .  S
O328        C334   1.269       .  A
O328       Cd331   2.498       .  S
C329        O337   1.265       .  A
C329       C1385   1.481       .  S
C330        O335   1.263       .  A
C330        O333   1.264       .  A
C330       C1556   1.484       .  S
Cd331       O338   2.425       .  S
Cd331       O337   2.455       .  S
Cd331       O336   2.454       .  S
Cd331       O332   2.483       .  S
Cd331       O335   2.472       .  S
Cd331       O333   2.486       .  S
C334        O338   1.263       .  A
C334       C1436   1.479       .  S
O339        C342   1.268       .  A
O339       Cd344   2.474       .  S
C340        O349   1.266       .  A
C340        O345   1.265       .  A
C340       C1356   1.485       .  S
O341        C347   1.269       .  A
O341       Cd344   2.501       .  S
C342        O350   1.264       .  A
C342       C1456   1.479       .  S
C343        O348   1.267       .  A
C343        O346   1.265       .  A
C343       C1325   1.489       .  S
Cd344       O351   2.415       .  S
Cd344       O350   2.438       .  S
Cd344       O349   2.485       .  S
Cd344       O345   2.452       .  S
Cd344       O348   2.493       .  S
Cd344       O346   2.457       .  S
C347        O351   1.263       .  A
C347       C1396   1.485       .  S
O352        C355   1.265       .  A
O352       Cd357   2.455       .  S
C353        O362   1.263       .  A
C353        O358   1.266       .  A
C353       C1285   1.484       .  S
O354        C360   1.263       .  A
O354       Cd357   2.476       .  S
C355        O363   1.265       .  A
C355       C1376   1.477       .  S
C356        O361   1.269       .  A
C356        O359   1.263       .  A
C356       C1305   1.477       .  S
Cd357       O364   2.466       .  S
Cd357       O363   2.466       .  S
Cd357       O362   2.451       .  S
Cd357       O358   2.469       .  S
Cd357       O361   2.487       .  S
Cd357       O359   2.416       .  S
C360        O364   1.263       .  A
C360       C1265   1.483       .  S
O365        C368   1.266       .  A
O365       Cd370   2.460       .  S
C366        O375   1.267       .  A
C366        O371   1.265       .  A
C366       C1345   1.486       .  S
O367        C373   1.268       .  A
O367       Cd370   2.503       .  S
C368        O376   1.264       .  A
C368       C1316   1.482       .  S
C369        O374   1.268       .  A
C369        O372   1.262       .  A
C369       C2276   1.488       .  S
Cd370       O377   2.423       .  S
Cd370       O376   2.456       .  S
Cd370       O375   2.464       .  S
Cd370       O371   2.451       .  S
Cd370       O374   2.502       .  S
Cd370       O372   2.431       .  S
C373        O377   1.263       .  A
C373       C1245   1.484       .  S
O378        C381   1.266       .  A
O378       Cd383   2.470       .  S
C379        O388   1.263       .  A
C379        O384   1.266       .  A
C379       C1416   1.488       .  S
O380        C386   1.267       .  A
O380       Cd383   2.503       .  S
C381        O389   1.267       .  A
C381       C1256   1.488       .  S
C382        O387   1.264       .  A
C382        O385   1.266       .  A
C382       C1496   1.489       .  S
Cd383       O390   2.425       .  S
Cd383       O389   2.459       .  S
Cd383       O388   2.466       .  S
Cd383       O384   2.474       .  S
Cd383       O387   2.480       .  S
Cd383       O385   2.468       .  S
C386        O390   1.262       .  A
C386       C1296   1.477       .  S
O391        C394   1.266       .  A
O391       Cd396   2.457       .  S
C392        O401   1.267       .  A
C392        O397   1.265       .  A
C392       C1205   1.487       .  S
O393        C399   1.266       .  A
O393       Cd396   2.482       .  S
C394        O402   1.264       .  A
C394       C1185   1.480       .  S
C395        O400   1.264       .  A
C395        O398   1.263       .  A
C395       C2016   1.477       .  S
Cd396       O403   2.427       .  S
Cd396       O402   2.464       .  S
Cd396       O401   2.452       .  S
Cd396       O397   2.464       .  S
Cd396       O400   2.465       .  S
Cd396       O398   2.460       .  S
C399        O403   1.261       .  A
C399       C1225   1.476       .  S
O404        C407   1.267       .  A
O404       Cd409   2.468       .  S
C405        O414   1.264       .  A
C405        O410   1.267       .  A
C405       C1165   1.482       .  S
O406        C412   1.263       .  A
O406       Cd409   2.481       .  S
C407        O415   1.267       .  A
C407       C1145   1.482       .  S
C408        O413   1.267       .  A
C408        O411   1.261       .  A
C408       C1125   1.488       .  S
Cd409       O416   2.481       .  S
Cd409       O415   2.441       .  S
Cd409       O414   2.451       .  S
Cd409       O410   2.465       .  S
Cd409       O413   2.503       .  S
Cd409       O411   2.448       .  S
C412        O416   1.264       .  A
C412       C1216   1.483       .  S
O417        C420   1.264       .  A
O417       Cd422   2.472       .  S
C418        O427   1.267       .  A
C418        O423   1.264       .  A
C418       C1236   1.486       .  S
O419        C425   1.263       .  A
O419       Cd422   2.457       .  S
C420        O428   1.265       .  A
C420       C1116   1.488       .  S
C421        O426   1.264       .  A
C421        O424   1.264       .  A
C421       C1836   1.488       .  S
Cd422       O429   2.483       .  S
Cd422       O428   2.464       .  S
Cd422       O427   2.464       .  S
Cd422       O423   2.461       .  S
Cd422       O426   2.501       .  S
Cd422       O424   2.469       .  S
C425        O429   1.266       .  A
C425       C1176   1.485       .  S
O430        C433   1.264       .  A
O430       Cd435   2.452       .  S
C431        O440   1.266       .  A
C431        O436   1.265       .  A
C431       C1085   1.480       .  S
O432        C438   1.266       .  A
O432       Cd435   2.503       .  S
C433        O441   1.267       .  A
C433       C1156   1.486       .  S
C434        O439   1.264       .  A
C434        O437   1.263       .  A
C434       C1696   1.481       .  S
Cd435       O442   2.445       .  S
Cd435       O441   2.483       .  S
Cd435       O440   2.459       .  S
Cd435       O436   2.456       .  S
Cd435       O439   2.471       .  S
Cd435       O437   2.473       .  S
C438        O442   1.262       .  A
C438       C1065   1.482       .  S
O443        C446   1.264       .  A
O443       Cd448   2.447       .  S
C444        O453   1.264       .  A
C444        O449   1.266       .  A
C444       C1045   1.479       .  S
O445        C451   1.266       .  A
O445       Cd448   2.465       .  S
C446        O454   1.267       .  A
C446       C1196   1.482       .  S
C447        O452   1.262       .  A
C447        O450   1.262       .  A
C447       C1036   1.484       .  S
Cd448       O455   2.465       .  S
Cd448       O454   2.465       .  S
Cd448       O453   2.444       .  S
Cd448       O449   2.469       .  S
Cd448       O452   2.482       .  S
Cd448       O450   2.454       .  S
C451        O455   1.263       .  A
C451       C1096   1.482       .  S
O456        C459   1.266       .  A
O456       Cd461   2.458       .  S
C457        O466   1.265       .  A
C457        O462   1.267       .  A
C457       C1105   1.488       .  S
O458        C464   1.266       .  A
O458       Cd461   2.479       .  S
C459        O467   1.264       .  A
C459       C1076   1.485       .  S
C460        O465   1.266       .  A
C460        O463   1.263       .  A
C460       C1056   1.485       .  S
Cd461       O468   2.452       .  S
Cd461       O467   2.475       .  S
Cd461       O466   2.466       .  S
Cd461       O462   2.463       .  S
Cd461       O465   2.490       .  S
Cd461       O463   2.426       .  S
C464        O468   1.262       .  A
C464       C2076   1.487       .  S
O469        C472   1.263       .  A
O469       Cd474   2.462       .  S
C470        O479   1.264       .  A
C470        O475   1.267       .  A
C470        C976   1.487       .  S
O471        C477   1.268       .  A
O471       Cd474   2.495       .  S
C472        O480   1.265       .  A
C472        C996   1.487       .  S
C473        O478   1.264       .  A
C473        O476   1.265       .  A
C473       C2476   1.485       .  S
Cd474       O481   2.422       .  S
Cd474       O480   2.467       .  S
Cd474       O479   2.450       .  S
Cd474       O475   2.462       .  S
Cd474       O478   2.467       .  S
Cd474       O476   2.465       .  S
C477        O481   1.264       .  A
C477       C1005   1.485       .  S
O482        C485   1.267       .  A
O482       Cd487   2.470       .  S
C483        O492   1.266       .  A
C483        O488   1.263       .  A
C483        C925   1.487       .  S
O484        C490   1.268       .  A
O484       Cd487   2.507       .  S
C485        O493   1.264       .  A
C485        C956   1.484       .  S
C486        O491   1.267       .  A
C486        O489   1.263       .  A
C486        C905   1.486       .  S
Cd487       O494   2.415       .  S
Cd487       O493   2.459       .  S
Cd487       O492   2.484       .  S
Cd487       O488   2.453       .  S
Cd487       O491   2.502       .  S
Cd487       O489   2.457       .  S
C490        O494   1.263       .  A
C490        C985   1.486       .  S
O495        C498   1.265       .  A
O495       Cd500   2.452       .  S
C496        O505   1.263       .  A
C496        O501   1.267       .  A
C496       C1016   1.484       .  S
O497        C503   1.266       .  A
O497       Cd500   2.484       .  S
C498        O506   1.267       .  A
C498        C896   1.490       .  S
C499        O504   1.270       .  A
C499        O502   1.263       .  A
C499        C945   1.482       .  S
Cd500       O507   2.461       .  S
Cd500       O506   2.489       .  S
Cd500       O505   2.454       .  S
Cd500       O501   2.498       .  S
Cd500       O504   2.492       .  S
Cd500       O502   2.415       .  S
C503        O507   1.265       .  A
C503       C1136   1.483       .  S
O508        C511   1.264       .  A
O508       Cd513   2.483       .  S
C509        O518   1.267       .  A
C509        O514   1.265       .  A
C509        C936   1.489       .  S
O510        C516   1.268       .  A
O510       Cd513   2.499       .  S
C511        O519   1.265       .  A
C511        C845   1.488       .  S
C512        O517   1.265       .  A
C512        O515   1.263       .  A
C512       C1025   1.480       .  S
Cd513       O520   2.441       .  S
Cd513       O519   2.473       .  S
Cd513       O518   2.472       .  S
Cd513       O514   2.463       .  S
Cd513       O517   2.488       .  S
Cd513       O515   2.453       .  S
C516        O520   1.263       .  A
C516        C876   1.483       .  S
O521        C524   1.262       .  A
O521       Cd526   2.449       .  S
C522        O531   1.263       .  A
C522        O527   1.265       .  A
C522        C865   1.485       .  S
O523        C529   1.265       .  A
O523       Cd526   2.476       .  S
C524        O532   1.268       .  A
C524        C885   1.490       .  S
C525        O530   1.267       .  A
C525        O528   1.262       .  A
C525        C825   1.482       .  S
Cd526       O533   2.466       .  S
Cd526       O532   2.492       .  S
Cd526       O531   2.479       .  S
Cd526       O527   2.466       .  S
Cd526       O530   2.497       .  S
Cd526       O528   2.434       .  S
C529        O533   1.264       .  A
C529       C2256   1.480       .  S
O534        C537   1.267       .  A
O534       Cd539   2.478       .  S
C535        O544   1.264       .  A
C535        O540   1.265       .  A
C535        C965   1.485       .  S
O536        C542   1.268       .  A
O536       Cd539   2.513       .  S
C537        O545   1.264       .  A
C537        C836   1.481       .  S
C538        O543   1.267       .  A
C538        O541   1.263       .  A
C538        C805   1.487       .  S
Cd539       O546   2.426       .  S
Cd539       O545   2.438       .  S
Cd539       O544   2.465       .  S
Cd539       O540   2.464       .  S
Cd539       O543   2.485       .  S
Cd539       O541   2.457       .  S
C542        O546   1.264       .  A
C542        C856   1.488       .  S
O547        C550   1.267       .  A
O547       Cd552   2.471       .  S
C548        O557   1.266       .  A
C548        O553   1.265       .  A
C548        C765   1.486       .  S
O549        C555   1.266       .  A
O549       Cd552   2.482       .  S
C550        O558   1.263       .  A
C550        C745   1.489       .  S
C551        O556   1.263       .  A
C551        O554   1.265       .  A
C551       C1945   1.491       .  S
Cd552       O559   2.451       .  S
Cd552       O558   2.477       .  S
Cd552       O557   2.476       .  S
Cd552       O553   2.467       .  S
Cd552       O556   2.486       .  S
Cd552       O554   2.468       .  S
C555        O559   1.264       .  A
C555        C785   1.484       .  S
O560        C563   1.268       .  A
O560       Cd565   2.480       .  S
C561        O570   1.264       .  A
C561        O566   1.266       .  A
C561        C725   1.488       .  S
O562        C568   1.262       .  A
O562       Cd565   2.455       .  S
C563        O571   1.265       .  A
C563        C705   1.488       .  S
C564        O569   1.264       .  A
C564        O567   1.264       .  A
C564       C1336   1.487       .  S
Cd565       O572   2.503       .  S
Cd565       O571   2.464       .  S
Cd565       O570   2.481       .  S
Cd565       O566   2.452       .  S
Cd565       O569   2.482       .  S
Cd565       O567   2.482       .  S
C568        O572   1.266       .  A
C568        C776   1.487       .  S
O573        C576   1.266       .  A
O573       Cd578   2.460       .  S
C574        O583   1.264       .  A
C574        O579   1.267       .  A
C574        C796   1.488       .  S
O575        C581   1.262       .  A
O575       Cd578   2.482       .  S
C576        O584   1.267       .  A
C576        C685   1.484       .  S
C577        O582   1.265       .  A
C577        O580   1.263       .  A
C577        C916   1.479       .  S
Cd578       O585   2.464       .  S
Cd578       O584   2.459       .  S
Cd578       O583   2.453       .  S
Cd578       O579   2.472       .  S
Cd578       O582   2.492       .  S
Cd578       O580   2.455       .  S
C581        O585   1.263       .  A
C581        C736   1.488       .  S
O586        C589   1.265       .  A
O586       Cd591   2.458       .  S
C587        O596   1.265       .  A
C587        O592   1.265       .  A
C587        C665   1.480       .  S
O588        C594   1.263       .  A
O588       Cd591   2.462       .  S
C589        O597   1.268       .  A
C589        C716   1.488       .  S
C590        O595   1.264       .  A
C590        O593   1.263       .  A
C590        C816   1.488       .  S
Cd591       O598   2.484       .  S
Cd591       O597   2.471       .  S
Cd591       O596   2.469       .  S
Cd591       O592   2.456       .  S
Cd591       O595   2.492       .  S
Cd591       O593   2.462       .  S
C594        O598   1.265       .  A
C594        C656   1.480       .  S
O599        C602   1.266       .  A
O599       Cd604   2.451       .  S
C600        O609   1.266       .  A
C600        O605   1.267       .  A
C600        C645   1.483       .  S
O601        C607   1.259       .  A
O601       Cd604   2.447       .  S
C602        O610   1.266       .  A
C602        C696   1.483       .  S
C603        O608   1.265       .  A
C603        O606   1.262       .  A
C603       C2116   1.485       .  S
Cd604       O611   2.511       .  S
Cd604       O610   2.477       .  S
Cd604       O609   2.464       .  S
Cd604       O605   2.457       .  S
Cd604       O608   2.488       .  S
Cd604       O606   2.475       .  S
C607        O611   1.268       .  A
C607        C636   1.489       .  S
O612        C615   1.268       .  A
O612       Cd617   2.465       .  S
C613        O622   1.265       .  A
C613        O618   1.264       .  A
C613        C756   1.484       .  S
O614        C620   1.266       .  A
O614       Cd617   2.486       .  S
C615        O623   1.267       .  A
C615        C625   1.483       .  S
C616        O621   1.269       .  A
C616        O619   1.260       .  A
C616        C676   1.478       .  S
Cd617       O624   2.460       .  S
Cd617       O623   2.443       .  S
Cd617       O622   2.472       .  S
Cd617       O618   2.472       .  S
Cd617       O621   2.516       .  S
Cd617       O619   2.423       .  S
C620        O624   1.262       .  A
C620       C1276   1.487       .  S
C625        C626   1.413       .  A
C625        C630   1.407       .  A
C626        C627   1.401       .  A
C626       Br642   1.920       .  S
C627        C628   1.405       .  A
C627        H631   1.082       .  S
C628        C632   1.485       .  S
C628        C629   1.409       .  A
C629        C630   1.397       .  A
C629       Br641   1.920       .  S
C630        H633   1.082       .  S
C632        C634   1.401       .  A
C632        C638   1.408       .  A
C634        C635   1.397       .  A
C634        H639   1.083       .  S
C635        C636   1.419       .  A
C635       Br643   1.925       .  S
C636        C637   1.408       .  A
C637        C638   1.402       .  A
C637        H640   1.082       .  S
C638       Br644   1.918       .  S
C645        C646   1.415       .  A
C645        C650   1.406       .  A
C646        C647   1.402       .  A
C646       Br662   1.920       .  S
C647        C648   1.402       .  A
C647        H651   1.082       .  S
C648        C652   1.478       .  S
C648        C649   1.406       .  A
C649        C650   1.396       .  A
C649       Br661   1.920       .  S
C650        H653   1.082       .  S
C652        C654   1.402       .  A
C652        C658   1.407       .  A
C654        C655   1.401       .  A
C654        H659   1.081       .  S
C655        C656   1.413       .  A
C655       Br663   1.919       .  S
C656        C657   1.406       .  A
C657        C658   1.399       .  A
C657        H660   1.081       .  S
C658       Br664   1.920       .  S
C665        C666   1.414       .  A
C665        C670   1.406       .  A
C666        C667   1.398       .  A
C666       Br682   1.922       .  S
C667        C668   1.401       .  A
C667        H671   1.083       .  S
C668        C672   1.480       .  S
C668        C669   1.407       .  A
C669        C670   1.401       .  A
C669       Br681   1.918       .  S
C670        H673   1.083       .  S
C672        C674   1.401       .  A
C672        C678   1.408       .  A
C674        C675   1.398       .  A
C674        H679   1.080       .  S
C675        C676   1.414       .  A
C675       Br683   1.922       .  S
C676        C677   1.404       .  A
C677        C678   1.402       .  A
C677        H680   1.081       .  S
C678       Br684   1.918       .  S
C685        C686   1.415       .  A
C685        C690   1.407       .  A
C686        C687   1.401       .  A
C686       Br702   1.921       .  S
C687        C688   1.403       .  A
C687        H691   1.081       .  S
C688        C692   1.482       .  S
C688        C689   1.408       .  A
C689        C690   1.398       .  A
C689       Br701   1.920       .  S
C690        H693   1.082       .  S
C692        C694   1.404       .  A
C692        C698   1.409       .  A
C694        C695   1.403       .  A
C694        H699   1.082       .  S
C695        C696   1.415       .  A
C695       Br703   1.920       .  S
C696        C697   1.405       .  A
C697        C698   1.396       .  A
C697        H700   1.082       .  S
C698       Br704   1.921       .  S
C705        C706   1.417       .  A
C705        C710   1.406       .  A
C706        C707   1.403       .  A
C706       Br722   1.921       .  S
C707        C708   1.402       .  A
C707        H711   1.083       .  S
C708        C712   1.483       .  S
C708        C709   1.408       .  A
C709        C710   1.399       .  A
C709       Br721   1.921       .  S
C710        H713   1.083       .  S
C712        C714   1.402       .  A
C712        C718   1.407       .  A
C714        C715   1.401       .  A
C714        H719   1.083       .  S
C715        C716   1.417       .  A
C715       Br723   1.922       .  S
C716        C717   1.408       .  A
C717        C718   1.399       .  A
C717        H720   1.082       .  S
C718       Br724   1.919       .  S
C725        C726   1.419       .  A
C725        C730   1.407       .  A
C726        C727   1.403       .  A
C726       Br742   1.921       .  S
C727        C728   1.402       .  A
C727        H731   1.081       .  S
C728        C732   1.478       .  S
C728        C729   1.405       .  A
C729        C730   1.395       .  A
C729       Br741   1.920       .  S
C730        H733   1.082       .  S
C732        C734   1.401       .  A
C732        C738   1.405       .  A
C734        C735   1.401       .  A
C734        H739   1.083       .  S
C735        C736   1.418       .  A
C735       Br743   1.922       .  S
C736        C737   1.408       .  A
C737        C738   1.396       .  A
C737        H740   1.082       .  S
C738       Br744   1.920       .  S
C745        C746   1.418       .  A
C745        C750   1.406       .  A
C746        C747   1.404       .  A
C746       Br762   1.921       .  S
C747        C748   1.402       .  A
C747        H751   1.083       .  S
C748        C752   1.481       .  S
C748        C749   1.407       .  A
C749        C750   1.397       .  A
C749       Br761   1.920       .  S
C750        H753   1.082       .  S
C752        C754   1.401       .  A
C752        C758   1.407       .  A
C754        C755   1.400       .  A
C754        H759   1.082       .  S
C755        C756   1.415       .  A
C755       Br763   1.921       .  S
C756        C757   1.407       .  A
C757        C758   1.400       .  A
C757        H760   1.083       .  S
C758       Br764   1.919       .  S
C765        C766   1.416       .  A
C765        C770   1.408       .  A
C766        C767   1.399       .  A
C766       Br782   1.922       .  S
C767        C768   1.402       .  A
C767        H771   1.083       .  S
C768        C772   1.484       .  S
C768        C769   1.407       .  A
C769        C770   1.402       .  A
C769       Br781   1.918       .  S
C770        H773   1.083       .  S
C772        C774   1.402       .  A
C772        C778   1.407       .  A
C774        C775   1.400       .  A
C774        H779   1.082       .  S
C775        C776   1.416       .  A
C775       Br783   1.922       .  S
C776        C777   1.408       .  A
C777        C778   1.402       .  A
C777        H780   1.082       .  S
C778       Br784   1.918       .  S
C785        C786   1.417       .  A
C785        C790   1.407       .  A
C786        C787   1.402       .  A
C786       Br802   1.920       .  S
C787        C788   1.400       .  A
C787        H791   1.082       .  S
C788        C792   1.476       .  S
C788        C789   1.406       .  A
C789        C790   1.396       .  A
C789       Br801   1.921       .  S
C790        H793   1.083       .  S
C792        C794   1.399       .  A
C792        C798   1.405       .  A
C794        C795   1.400       .  A
C794        H799   1.083       .  S
C795        C796   1.419       .  A
C795       Br803   1.921       .  S
C796        C797   1.408       .  A
C797        C798   1.398       .  A
C797        H800   1.082       .  S
C798       Br804   1.919       .  S
C805        C806   1.417       .  A
C805        C810   1.408       .  A
C806        C807   1.399       .  A
C806       Br822   1.921       .  S
C807        C808   1.402       .  A
C807        H811   1.081       .  S
C808        C812   1.484   1_565  S
C808        C809   1.409       .  A
C809        C810   1.401       .  A
C809       Br821   1.920       .  S
C810        H813   1.081       .  S
C812        C814   1.403       .  A
C812        C818   1.408       .  A
C814        C815   1.402       .  A
C814        H819   1.082       .  S
C815        C816   1.417       .  A
C815       Br823   1.920       .  S
C816        C817   1.407       .  A
C817        C818   1.397       .  A
C817        H820   1.082       .  S
C818       Br824   1.921       .  S
C825        C826   1.415       .  A
C825        C830   1.407       .  A
C826        C827   1.396       .  A
C826       Br842   1.922       .  S
C827        C828   1.401       .  A
C827        H831   1.081       .  S
C828        C832   1.479       .  S
C828        C829   1.408       .  A
C829        C830   1.402       .  A
C829       Br841   1.919       .  S
C830        H833   1.082       .  S
C832        C834   1.400       .  A
C832        C838   1.408       .  A
C834        C835   1.396       .  A
C834        H839   1.081       .  S
C835        C836   1.415       .  A
C835       Br843   1.923       .  S
C836        C837   1.407       .  A
C837        C838   1.401       .  A
C837        H840   1.082       .  S
C838       Br844   1.919       .  S
C845        C846   1.416       .  A
C845        C850   1.407       .  A
C846        C847   1.403       .  A
C846       Br862   1.921       .  S
C847        C848   1.404       .  A
C847        H851   1.082       .  S
C848        C852   1.484       .  S
C848        C849   1.407       .  A
C849        C850   1.399       .  A
C849       Br861   1.920       .  S
C850        H853   1.082       .  S
C852        C854   1.406       .  A
C852        C858   1.407       .  A
C854        C855   1.407       .  A
C854        H859   1.083       .  S
C855        C856   1.416       .  A
C855       Br863   1.919       .  S
C856        C857   1.406       .  A
C857        C858   1.394       .  A
C857        H860   1.084       .  S
C858       Br864   1.921       .  S
C865        C866   1.417       .  A
C865        C870   1.407       .  A
C866        C867   1.401       .  A
C866       Br882   1.922       .  S
C867        C868   1.402       .  A
C867        H871   1.082       .  S
C868        C872   1.482       .  S
C868        C869   1.407       .  A
C869        C870   1.399       .  A
C869       Br881   1.918       .  S
C870        H873   1.083       .  S
C872        C874   1.402       .  A
C872        C878   1.408       .  A
C874        C875   1.398       .  A
C874        H879   1.081       .  S
C875        C876   1.414       .  A
C875       Br883   1.922       .  S
C876        C877   1.407       .  A
C877        C878   1.402       .  A
C877        H880   1.081       .  S
C878       Br884   1.918       .  S
C885        C886   1.418       .  A
C885        C890   1.409       .  A
C886        C887   1.398       .  A
C886       Br902   1.923       .  S
C887        C888   1.401       .  A
C887        H891   1.083       .  S
C888        C892   1.486       .  S
C888        C889   1.409       .  A
C889        C890   1.402       .  A
C889       Br901   1.919       .  S
C890        H893   1.082       .  S
C892        C894   1.402       .  A
C892        C898   1.409       .  A
C894        C895   1.398       .  A
C894        H899   1.083       .  S
C895        C896   1.416       .  A
C895       Br903   1.921       .  S
C896        C897   1.410       .  A
C897        C898   1.403       .  A
C897        H900   1.082       .  S
C898       Br904   1.920       .  S
C905        C906   1.416       .  A
C905        C910   1.408       .  A
C906        C907   1.398       .  A
C906       Br922   1.921       .  S
C907        C908   1.400       .  A
C907        H911   1.081       .  S
C908        C912   1.481       .  S
C908        C909   1.407       .  A
C909        C910   1.403       .  A
C909       Br921   1.918       .  S
C910        H913   1.081       .  S
C912        C914   1.402       .  A
C912        C918   1.408       .  A
C914        C915   1.401       .  A
C914        H919   1.081       .  S
C915        C916   1.412       .  A
C915       Br923   1.920       .  S
C916        C917   1.404       .  A
C917        C918   1.400       .  A
C917        H920   1.081       .  S
C918       Br924   1.919       .  S
C925        C926   1.418       .  A
C925        C930   1.409       .  A
C926        C927   1.397       .  A
C926       Br942   1.923       .  S
C927        C928   1.400       .  A
C927        H931   1.082       .  S
C928        C932   1.481       .  S
C928        C929   1.407       .  A
C929        C930   1.402       .  A
C929       Br941   1.918       .  S
C930        H933   1.082       .  S
C932        C934   1.402       .  A
C932        C938   1.406       .  A
C934        C935   1.401       .  A
C934        H939   1.082       .  S
C935        C936   1.418       .  A
C935       Br943   1.921       .  S
C936        C937   1.408       .  A
C937        C938   1.399       .  A
C937        H940   1.082       .  S
C938       Br944   1.919       .  S
C945        C946   1.415       .  A
C945        C950   1.407       .  A
C946        C947   1.397       .  A
C946       Br962   1.923       .  S
C947        C948   1.401       .  A
C947        H951   1.081       .  S
C948        C952   1.480       .  S
C948        C949   1.407       .  A
C949        C950   1.402       .  A
C949       Br961   1.918       .  S
C950        H953   1.082       .  S
C952        C954   1.401       .  A
C952        C958   1.407       .  A
C954        C955   1.400       .  A
C954        H959   1.082       .  S
C955        C956   1.417       .  A
C955       Br963   1.923       .  S
C956        C957   1.406       .  A
C957        C958   1.400       .  A
C957        H960   1.083       .  S
C958       Br964   1.918       .  S
C965        C966   1.416       .  A
C965        C970   1.407       .  A
C966        C967   1.401       .  A
C966       Br982   1.920       .  S
C967        C968   1.401       .  A
C967        H971   1.082       .  S
C968        C972   1.477       .  S
C968        C969   1.406       .  A
C969        C970   1.397       .  A
C969       Br981   1.921       .  S
C970        H973   1.082       .  S
C972        C974   1.399       .  A
C972        C978   1.406       .  A
C974        C975   1.399       .  A
C974        H979   1.082       .  S
C975        C976   1.419       .  A
C975       Br983   1.922       .  S
C976        C977   1.408       .  A
C977        C978   1.398       .  A
C977        H980   1.082       .  S
C978       Br984   1.919       .  S
C985        C986   1.416       .  A
C985        C990   1.406       .  A
C986        C987   1.406       .  A
C986      Br1002   1.919       .  S
C987        C988   1.404       .  A
C987        H991   1.083       .  S
C988        C992   1.478       .  S
C988        C989   1.406       .  A
C989        C990   1.391       .  A
C989      Br1001   1.923       .  S
C990        H993   1.084       .  S
C992        C994   1.401       .  A
C992        C998   1.405       .  A
C994        C995   1.399       .  A
C994        H999   1.082       .  S
C995        C996   1.418       .  A
C995      Br1003   1.922       .  S
C996        C997   1.409       .  A
C997        C998   1.399       .  A
C997       H1000   1.081       .  S
C998      Br1004   1.919       .  S
C1005      C1006   1.415       .  A
C1005      C1010   1.407       .  A
C1006      C1007   1.404       .  A
C1006     Br1022   1.920       .  S
C1007      C1008   1.405       .  A
C1007      H1011   1.083       .  S
C1008      C1012   1.482       .  S
C1008      C1009   1.406       .  A
C1009      C1010   1.395       .  A
C1009     Br1021   1.920       .  S
C1010      H1013   1.083       .  S
C1012      C1014   1.405       .  A
C1012      C1018   1.407       .  A
C1014      C1015   1.404       .  A
C1014      H1019   1.081       .  S
C1015      C1016   1.413       .  A
C1015     Br1023   1.918       .  S
C1016      C1017   1.407       .  A
C1017      C1018   1.397       .  A
C1017      H1020   1.082       .  S
C1018     Br1024   1.921       .  S
C1025      C1026   1.413       .  A
C1025      C1030   1.407       .  A
C1026      C1027   1.397       .  A
C1026     Br1042   1.920       .  S
C1027      C1028   1.400   1_655  A
C1027      H1031   1.081   1_655  S
C1028      C1032   1.475       .  S
C1028      C1029   1.406   1_455  A
C1029      C1030   1.401       .  A
C1029     Br1041   1.919   1_655  S
C1030      H1033   1.080       .  S
C1032      C1034   1.400       .  A
C1032      C1038   1.404       .  A
C1034      C1035   1.401       .  A
C1034      H1039   1.082       .  S
C1035      C1036   1.417       .  A
C1035     Br1043   1.921       .  S
C1036      C1037   1.408       .  A
C1037      C1038   1.395       .  A
C1037      H1040   1.083       .  S
C1038     Br1044   1.920       .  S
C1045      C1046   1.415       .  A
C1045      C1050   1.408       .  A
C1046      C1047   1.396       .  A
C1046     Br1062   1.923       .  S
C1047      C1048   1.400       .  A
C1047      H1051   1.082       .  S
C1048      C1052   1.475       .  S
C1048      C1049   1.406       .  A
C1049      C1050   1.400       .  A
C1049     Br1061   1.918       .  S
C1050      H1053   1.081       .  S
C1052      C1054   1.401       .  A
C1052      C1058   1.405       .  A
C1054      C1055   1.401       .  A
C1054      H1059   1.084       .  S
C1055      C1056   1.416       .  A
C1055     Br1063   1.920       .  S
C1056      C1057   1.408       .  A
C1057      C1058   1.395       .  A
C1057      H1060   1.084       .  S
C1058     Br1064   1.921       .  S
C1065      C1066   1.413       .  A
C1065      C1070   1.406       .  A
C1066      C1067   1.402       .  A
C1066     Br1082   1.919       .  S
C1067      C1068   1.404       .  A
C1067      H1071   1.082       .  S
C1068      C1072   1.482       .  S
C1068      C1069   1.408       .  A
C1069      C1070   1.398       .  A
C1069     Br1081   1.920       .  S
C1070      H1073   1.082       .  S
C1072      C1074   1.403       .  A
C1072      C1078   1.408       .  A
C1074      C1075   1.403       .  A
C1074      H1079   1.081       .  S
C1075      C1076   1.416       .  A
C1075     Br1083   1.920       .  S
C1076      C1077   1.406       .  A
C1077      C1078   1.396       .  A
C1077      H1080   1.081       .  S
C1078     Br1084   1.921       .  S
C1085      C1086   1.414       .  A
C1085      C1090   1.405       .  A
C1086      C1087   1.400       .  A
C1086     Br1102   1.920       .  S
C1087      C1088   1.402       .  A
C1087      H1091   1.082       .  S
C1088      C1092   1.476       .  S
C1088      C1089   1.406       .  A
C1089      C1090   1.396       .  A
C1089     Br1101   1.919       .  S
C1090      H1093   1.083       .  S
C1092      C1094   1.401       .  A
C1092      C1098   1.407       .  A
C1094      C1095   1.401       .  A
C1094      H1099   1.080       .  S
C1095      C1096   1.416       .  A
C1095     Br1103   1.920       .  S
C1096      C1097   1.406       .  A
C1097      C1098   1.396       .  A
C1097      H1100   1.081       .  S
C1098     Br1104   1.921       .  S
C1105      C1106   1.417       .  A
C1105      C1110   1.407       .  A
C1106      C1107   1.402       .  A
C1106     Br1122   1.921       .  S
C1107      C1108   1.401       .  A
C1107      H1111   1.083       .  S
C1108      C1112   1.480       .  S
C1108      C1109   1.407       .  A
C1109      C1110   1.398       .  A
C1109     Br1121   1.920       .  S
C1110      H1113   1.083       .  S
C1112      C1114   1.401       .  A
C1112      C1118   1.405       .  A
C1114      C1115   1.401       .  A
C1114      H1119   1.083       .  S
C1115      C1116   1.418       .  A
C1115     Br1123   1.922       .  S
C1116      C1117   1.409       .  A
C1117      C1118   1.399       .  A
C1117      H1120   1.082       .  S
C1118     Br1124   1.918       .  S
C1125      C1126   1.417       .  A
C1125      C1130   1.407       .  A
C1126      C1127   1.398       .  A
C1126     Br1142   1.923       .  S
C1127      C1128   1.402       .  A
C1127      H1131   1.081       .  S
C1128      C1132   1.486       .  S
C1128      C1129   1.410       .  A
C1129      C1130   1.402       .  A
C1129     Br1141   1.919       .  S
C1130      H1133   1.081       .  S
C1132      C1134   1.404       .  A
C1132      C1138   1.410       .  A
C1134      C1135   1.401       .  A
C1134      H1139   1.082       .  S
C1135      C1136   1.413       .  A
C1135     Br1143   1.919       .  S
C1136      C1137   1.406       .  A
C1137      C1138   1.399       .  A
C1137      H1140   1.082       .  S
C1138     Br1144   1.921       .  S
C1145      C1146   1.415       .  A
C1145      C1150   1.406       .  A
C1146      C1147   1.403       .  A
C1146     Br1162   1.920       .  S
C1147      C1148   1.402       .  A
C1147      H1151   1.082       .  S
C1148      C1152   1.476       .  S
C1148      C1149   1.405       .  A
C1149      C1150   1.395       .  A
C1149     Br1161   1.919       .  S
C1150      H1153   1.082       .  S
C1152      C1154   1.400       .  A
C1152      C1158   1.404       .  A
C1154      C1155   1.398       .  A
C1154      H1159   1.082       .  S
C1155      C1156   1.417       .  A
C1155     Br1163   1.922       .  S
C1156      C1157   1.409       .  A
C1157      C1158   1.401       .  A
C1157      H1160   1.081       .  S
C1158     Br1164   1.917       .  S
C1165      C1166   1.415       .  A
C1165      C1170   1.406       .  A
C1166      C1167   1.400       .  A
C1166     Br1182   1.920       .  S
C1167      C1168   1.401       .  A
C1167      H1171   1.082       .  S
C1168      C1172   1.479       .  S
C1168      C1169   1.408       .  A
C1169      C1170   1.397       .  A
C1169     Br1181   1.920       .  S
C1170      H1173   1.082       .  S
C1172      C1174   1.401       .  A
C1172      C1178   1.408       .  A
C1174      C1175   1.400       .  A
C1174      H1179   1.081       .  S
C1175      C1176   1.416       .  A
C1175     Br1183   1.920       .  S
C1176      C1177   1.407       .  A
C1177      C1178   1.399       .  A
C1177      H1180   1.082       .  S
C1178     Br1184   1.921       .  S
C1185      C1186   1.415       .  A
C1185      C1190   1.405       .  A
C1186      C1187   1.400       .  A
C1186     Br1202   1.920       .  S
C1187      C1188   1.401       .  A
C1187      H1191   1.083       .  S
C1188      C1192   1.475       .  S
C1188      C1189   1.407       .  A
C1189      C1190   1.395       .  A
C1189     Br1201   1.920       .  S
C1190      H1193   1.082       .  S
C1192      C1194   1.400       .  A
C1192      C1198   1.405       .  A
C1194      C1195   1.399       .  A
C1194      H1199   1.082       .  S
C1195      C1196   1.415       .  A
C1195     Br1203   1.921       .  S
C1196      C1197   1.407       .  A
C1197      C1198   1.398       .  A
C1197      H1200   1.082       .  S
C1198     Br1204   1.919       .  S
C1205      C1206   1.417       .  A
C1205      C1210   1.408       .  A
C1206      C1207   1.400       .  A
C1206     Br1222   1.922       .  S
C1207      C1208   1.402       .  A
C1207      H1211   1.084       .  S
C1208      C1212   1.481       .  S
C1208      C1209   1.406       .  A
C1209      C1210   1.398       .  A
C1209     Br1221   1.918       .  S
C1210      H1213   1.083       .  S
C1212      C1214   1.402       .  A
C1212      C1218   1.407       .  A
C1214      C1215   1.399       .  A
C1214      H1219   1.083       .  S
C1215      C1216   1.415       .  A
C1215     Br1223   1.922       .  S
C1216      C1217   1.406       .  A
C1217      C1218   1.401       .  A
C1217      H1220   1.083       .  S
C1218     Br1224   1.918       .  S
C1225      C1226   1.413       .  A
C1225      C1230   1.406       .  A
C1226      C1227   1.396       .  A
C1226     Br1242   1.923       .  S
C1227      C1228   1.401       .  A
C1227      H1231   1.080       .  S
C1228      C1232   1.475       .  S
C1228      C1229   1.406       .  A
C1229      C1230   1.399       .  A
C1229     Br1241   1.917       .  S
C1230      H1233   1.082       .  S
C1232      C1234   1.401       .  A
C1232      C1238   1.403       .  A
C1234      C1235   1.399       .  A
C1234      H1239   1.083       .  S
C1235      C1236   1.418       .  A
C1235     Br1243   1.922       .  S
C1236      C1237   1.408       .  A
C1237      C1238   1.397       .  A
C1237      H1240   1.083       .  S
C1238     Br1244   1.918       .  S
C1245      C1246   1.415       .  A
C1245      C1250   1.407       .  A
C1246      C1247   1.405       .  A
C1246     Br1262   1.919       .  S
C1247      C1248   1.403       .  A
C1247      H1251   1.084       .  S
C1248      C1252   1.478       .  S
C1248      C1249   1.405       .  A
C1249      C1250   1.394       .  A
C1249     Br1261   1.921       .  S
C1250      H1253   1.083       .  S
C1252      C1254   1.402       .  A
C1252      C1258   1.404       .  A
C1254      C1255   1.401       .  A
C1254      H1259   1.083       .  S
C1255      C1256   1.417       .  A
C1255     Br1263   1.921       .  S
C1256      C1257   1.409       .  A
C1257      C1258   1.398       .  A
C1257      H1260   1.079       .  S
C1258     Br1264   1.918       .  S
C1265      C1266   1.416       .  A
C1265      C1270   1.407       .  A
C1266      C1267   1.400       .  A
C1266     Br1282   1.921       .  S
C1267      C1268   1.401       .  A
C1267      H1271   1.082       .  S
C1268      C1272   1.478   1_556  S
C1268      C1269   1.406       .  A
C1269      C1270   1.398       .  A
C1269     Br1281   1.918       .  S
C1270      H1273   1.082       .  S
C1272      C1274   1.400       .  A
C1272      C1278   1.405       .  A
C1274      C1275   1.399       .  A
C1274      H1279   1.081       .  S
C1275      C1276   1.418       .  A
C1275     Br1283   1.922       .  S
C1276      C1277   1.408       .  A
C1277      C1278   1.400       .  A
C1277      H1280   1.081       .  S
C1278     Br1284   1.918       .  S
C1285      C1286   1.417       .  A
C1285      C1290   1.408       .  A
C1286      C1287   1.399       .  A
C1286     Br1302   1.922       .  S
C1287      C1288   1.400       .  A
C1287      H1291   1.082       .  S
C1288      C1292   1.475       .  S
C1288      C1289   1.405       .  A
C1289      C1290   1.398       .  A
C1289     Br1301   1.919       .  S
C1290      H1293   1.082       .  S
C1292      C1294   1.399       .  A
C1292      C1298   1.406       .  A
C1294      C1295   1.394       .  A
C1294      H1299   1.083       .  S
C1295      C1296   1.413       .  A
C1295     Br1303   1.923       .  S
C1296      C1297   1.407       .  A
C1297      C1298   1.403       .  A
C1297      H1300   1.082       .  S
C1298     Br1304   1.917       .  S
C1305      C1306   1.414       .  A
C1305      C1310   1.406       .  A
C1306      C1307   1.395       .  A
C1306     Br1322   1.923       .  S
C1307      C1308   1.399       .  A
C1307      H1311   1.082       .  S
C1308      C1312   1.473       .  S
C1308      C1309   1.406       .  A
C1309      C1310   1.401       .  A
C1309     Br1321   1.917       .  S
C1310      H1313   1.082       .  S
C1312      C1314   1.400       .  A
C1312      C1318   1.406       .  A
C1314      C1315   1.401       .  A
C1314      H1319   1.081       .  S
C1315      C1316   1.416       .  A
C1315     Br1323   1.920       .  S
C1316      C1317   1.406       .  A
C1317      C1318   1.396       .  A
C1317      H1320   1.082       .  S
C1318     Br1324   1.921       .  S
C1325      C1326   1.417       .  A
C1325      C1330   1.409       .  A
C1326      C1327   1.402       .  A
C1326     Br1342   1.919       .  S
C1327      C1328   1.400       .  A
C1327      H1331   1.082       .  S
C1328      C1332   1.478       .  S
C1328      C1329   1.405       .  A
C1329      C1330   1.399       .  A
C1329     Br1341   1.919       .  S
C1330      H1333   1.082       .  S
C1332      C1334   1.400       .  A
C1332      C1338   1.405       .  A
C1334      C1335   1.401       .  A
C1334      H1339   1.082       .  S
C1335      C1336   1.417       .  A
C1335     Br1343   1.921       .  S
C1336      C1337   1.408       .  A
C1337      C1338   1.401       .  A
C1337      H1340   1.082       .  S
C1338     Br1344   1.918       .  S
C1345      C1346   1.417       .  A
C1345      C1350   1.407       .  A
C1346      C1347   1.401       .  A
C1346     Br1362   1.922       .  S
C1347      C1348   1.402       .  A
C1347      H1351   1.083       .  S
C1348      C1352   1.482       .  S
C1348      C1349   1.407       .  A
C1349      C1350   1.398       .  A
C1349     Br1361   1.919       .  S
C1350      H1353   1.083       .  S
C1352      C1354   1.401       .  A
C1352      C1358   1.408       .  A
C1354      C1355   1.397       .  A
C1354      H1359   1.084       .  S
C1355      C1356   1.416       .  A
C1355     Br1363   1.922       .  S
C1356      C1357   1.408       .  A
C1357      C1358   1.403       .  A
C1357      H1360   1.083       .  S
C1358     Br1364   1.919       .  S
C1365      C1366   1.411       .  A
C1365      C1370   1.404       .  A
C1366      C1367   1.402       .  A
C1366     Br1382   1.918       .  S
C1367      C1368   1.403       .  A
C1367      H1371   1.083       .  S
C1368      C1372   1.478       .  S
C1368      C1369   1.407       .  A
C1369      C1370   1.397       .  A
C1369     Br1381   1.920       .  S
C1370      H1373   1.082       .  S
C1372      C1374   1.402       .  A
C1372      C1378   1.407       .  A
C1374      C1375   1.400       .  A
C1374      H1379   1.082       .  S
C1375      C1376   1.413       .  A
C1375     Br1383   1.922       .  S
C1376      C1377   1.404       .  A
C1377      C1378   1.398       .  A
C1377      H1380   1.081       .  S
C1378     Br1384   1.918       .  S
C1385      C1386   1.413       .  A
C1385      C1390   1.407       .  A
C1386      C1387   1.401       .  A
C1386     Br1402   1.920       .  S
C1387      C1388   1.401       .  A
C1387      H1391   1.084       .  S
C1388      C1392   1.474       .  S
C1388      C1389   1.404       .  A
C1389      C1390   1.397       .  A
C1389     Br1401   1.919       .  S
C1390      H1393   1.081       .  S
C1392      C1394   1.401       .  A
C1392      C1398   1.403       .  A
C1394      C1395   1.403       .  A
C1394      H1399   1.083       .  S
C1395      C1396   1.415       .  A
C1395     Br1403   1.918       .  S
C1396      C1397   1.409       .  A
C1397      C1398   1.394       .  A
C1397      H1400   1.082       .  S
C1398     Br1404   1.921       .  S
C1405      C1406   1.417       .  A
C1405      C1410   1.406       .  A
C1406      C1407   1.403       .  A
C1406     Br1422   1.920       .  S
C1407      C1408   1.403       .  A
C1407      H1411   1.082       .  S
C1408      C1412   1.480       .  S
C1408      C1409   1.407       .  A
C1409      C1410   1.395       .  A
C1409     Br1421   1.921       .  S
C1410      H1413   1.082       .  S
C1412      C1414   1.401       .  A
C1412      C1418   1.407       .  A
C1414      C1415   1.401       .  A
C1414      H1419   1.082       .  S
C1415      C1416   1.418       .  A
C1415     Br1423   1.921       .  S
C1416      C1417   1.408       .  A
C1417      C1418   1.398       .  A
C1417      H1420   1.082       .  S
C1418     Br1424   1.920       .  S
C1425      C1426   1.414       .  A
C1425      C1430   1.407       .  A
C1426      C1427   1.401       .  A
C1426     Br1442   1.920       .  S
C1427      C1428   1.403       .  A
C1427      H1431   1.081       .  S
C1428      C1432   1.481       .  S
C1428      C1429   1.409       .  A
C1429      C1430   1.399       .  A
C1429     Br1441   1.921       .  S
C1430      H1433   1.083       .  S
C1432      C1434   1.401       .  A
C1432      C1438   1.409       .  A
C1434      C1435   1.396       .  A
C1434      H1439   1.082       .  S
C1435      C1436   1.412       .  A
C1435     Br1443   1.922       .  S
C1436      C1437   1.407       .  A
C1437      C1438   1.403       .  A
C1437      H1440   1.081       .  S
C1438     Br1444   1.918       .  S
C1445      C1446   1.411       .  A
C1445      C1450   1.403       .  A
C1446      C1447   1.397       .  A
C1446     Br1462   1.922       .  S
C1447      C1448   1.403       .  A
C1447      H1451   1.081       .  S
C1448      C1452   1.481       .  S
C1448      C1449   1.410       .  A
C1449      C1450   1.400       .  A
C1449     Br1461   1.919       .  S
C1450      H1453   1.081       .  S
C1452      C1454   1.402       .  A
C1452      C1458   1.409       .  A
C1454      C1455   1.396       .  A
C1454      H1459   1.082       .  S
C1455      C1456   1.414       .  A
C1455     Br1463   1.923       .  S
C1456      C1457   1.405       .  A
C1457      C1458   1.401       .  A
C1457      H1460   1.082       .  S
C1458     Br1464   1.919       .  S
C1465      C1466   1.416       .  A
C1465      C1470   1.407       .  A
C1466      C1467   1.399       .  A
C1466     Br1482   1.922       .  S
C1467      C1468   1.401       .  A
C1467      H1471   1.081       .  S
C1468      C1472   1.483       .  S
C1468      C1469   1.408       .  A
C1469      C1470   1.403       .  A
C1469     Br1481   1.918       .  S
C1470      H1473   1.082       .  S
C1472      C1474   1.402       .  A
C1472      C1478   1.407       .  A
C1474      C1475   1.401       .  A
C1474      H1479   1.083       .  S
C1475      C1476   1.416       .  A
C1475     Br1483   1.921       .  S
C1476      C1477   1.409       .  A
C1477      C1478   1.400       .  A
C1477      H1480   1.082       .  S
C1478     Br1484   1.919       .  S
C1485      C1486   1.415       .  A
C1485      C1490   1.407       .  A
C1486      C1487   1.400       .  A
C1486     Br1502   1.920       .  S
C1487      C1488   1.402       .  A
C1487      H1491   1.082       .  S
C1488      C1492   1.483       .  S
C1488      C1489   1.408       .  A
C1489      C1490   1.400       .  A
C1489     Br1501   1.920       .  S
C1490      H1493   1.082       .  S
C1492      C1494   1.402   1_455  A
C1492      C1498   1.408       .  A
C1494      C1495   1.402       .  A
C1494      H1499   1.082   1_655  S
C1495      C1496   1.418       .  A
C1495     Br1503   1.921       .  S
C1496      C1497   1.407       .  A
C1497      C1498   1.398   1_655  A
C1497      H1500   1.081       .  S
C1498     Br1504   1.921       .  S
C1505      C1506   1.416       .  A
C1505      C1510   1.407       .  A
C1506      C1507   1.400       .  A
C1506     Br1522   1.921       .  S
C1507      C1508   1.403       .  A
C1507      H1511   1.080       .  S
C1508      C1512   1.483       .  S
C1508      C1509   1.407       .  A
C1509      C1510   1.399       .  A
C1509     Br1521   1.918       .  S
C1510      H1513   1.082       .  S
C1512      C1514   1.401       .  A
C1512      C1518   1.407       .  A
C1514      C1515   1.397       .  A
C1514      H1519   1.083       .  S
C1515      C1516   1.417       .  A
C1515     Br1523   1.922       .  S
C1516      C1517   1.409       .  A
C1517      C1518   1.402       .  A
C1517      H1520   1.083       .  S
C1518     Br1524   1.919       .  S
C1525      C1526   1.418       .  A
C1525      C1530   1.407       .  A
C1526      C1527   1.404       .  A
C1526     Br1542   1.920       .  S
C1527      C1528   1.402       .  A
C1527      H1531   1.082       .  S
C1528      C1532   1.480       .  S
C1528      C1529   1.406       .  A
C1529      C1530   1.396       .  A
C1529     Br1541   1.920       .  S
C1530      H1533   1.082       .  S
C1532      C1534   1.401       .  A
C1532      C1538   1.405       .  A
C1534      C1535   1.401       .  A
C1534      H1539   1.082       .  S
C1535      C1536   1.418       .  A
C1535     Br1543   1.920       .  S
C1536      C1537   1.410       .  A
C1537      C1538   1.398       .  A
C1537      H1540   1.083       .  S
C1538     Br1544   1.920       .  S
C1545      C1546   1.419       .  A
C1545      C1550   1.409       .  A
C1546      C1547   1.397       .  A
C1546     Br1562   1.923       .  S
C1547      C1548   1.399       .  A
C1547      H1551   1.081       .  S
C1548      C1552   1.481       .  S
C1548      C1549   1.407       .  A
C1549      C1550   1.401       .  A
C1549     Br1561   1.919       .  S
C1550      H1553   1.082       .  S
C1552      C1554   1.401       .  A
C1552      C1558   1.408       .  A
C1554      C1555   1.398       .  A
C1554      H1559   1.083       .  S
C1555      C1556   1.415       .  A
C1555     Br1563   1.921       .  S
C1556      C1557   1.407       .  A
C1557      C1558   1.401       .  A
C1557      H1560   1.082       .  S
C1558     Br1564   1.919       .  S
C1565      C1566   1.412       .  A
C1565      C1570   1.405       .  A
C1566      C1567   1.399       .  A
C1566     Br1582   1.920       .  S
C1567      C1568   1.400       .  A
C1567      H1571   1.083       .  S
C1568      C1572   1.473       .  S
C1568      C1569   1.407       .  A
C1569      C1570   1.396       .  A
C1569     Br1581   1.920       .  S
C1570      H1573   1.083       .  S
C1572      C1574   1.400       .  A
C1572      C1578   1.403       .  A
C1574      C1575   1.400       .  A
C1574      H1579   1.083       .  S
C1575      C1576   1.418       .  A
C1575     Br1583   1.921       .  S
C1576      C1577   1.410       .  A
C1577      C1578   1.397       .  A
C1577      H1580   1.082       .  S
C1578     Br1584   1.919       .  S
C1585      C1586   1.415       .  A
C1585      C1590   1.406       .  A
C1586      C1587   1.404       .  A
C1586     Br1602   1.920       .  S
C1587      C1588   1.403       .  A
C1587      H1591   1.082       .  S
C1588      C1592   1.479       .  S
C1588      C1589   1.406       .  A
C1589      C1590   1.396       .  A
C1589     Br1601   1.920       .  S
C1590      H1593   1.082       .  S
C1592      C1594   1.401       .  A
C1592      C1598   1.405       .  A
C1594      C1595   1.401       .  A
C1594      H1599   1.082       .  S
C1595      C1596   1.416       .  A
C1595     Br1603   1.920       .  S
C1596      C1597   1.408       .  A
C1597      C1598   1.399       .  A
C1597      H1600   1.082       .  S
C1598     Br1604   1.919       .  S
C1605      C1606   1.413       .  A
C1605      C1610   1.405       .  A
C1606      C1607   1.400       .  A
C1606     Br1622   1.919       .  S
C1607      C1608   1.402       .  A
C1607      H1611   1.082       .  S
C1608      C1612   1.482       .  S
C1608      C1609   1.410       .  A
C1609      C1610   1.399       .  A
C1609     Br1621   1.921       .  S
C1610      H1613   1.083       .  S
C1612      C1614   1.403       .  A
C1612      C1618   1.409       .  A
C1614      C1615   1.401       .  A
C1614      H1619   1.081       .  S
C1615      C1616   1.413       .  A
C1615     Br1623   1.920       .  S
C1616      C1617   1.404       .  A
C1617      C1618   1.397       .  A
C1617      H1620   1.082       .  S
C1618     Br1624   1.920       .  S
C1625      C1626   1.414       .  A
C1625      C1630   1.408       .  A
C1626      C1627   1.399       .  A
C1626     Br1642   1.920       .  S
C1627      C1628   1.401       .  A
C1627      H1631   1.083       .  S
C1628      C1632   1.478       .  S
C1628      C1629   1.407       .  A
C1629      C1630   1.400       .  A
C1629     Br1641   1.920       .  S
C1630      H1633   1.082       .  S
C1632      C1634   1.402       .  A
C1632      C1638   1.408       .  A
C1634      C1635   1.401       .  A
C1634      H1639   1.082       .  S
C1635      C1636   1.414       .  A
C1635     Br1643   1.920       .  S
C1636      C1637   1.406       .  A
C1637      C1638   1.396       .  A
C1637      H1640   1.083       .  S
C1638     Br1644   1.921       .  S
C1645      C1646   1.412       .  A
C1645      C1650   1.405       .  A
C1646      C1647   1.403       .  A
C1646     Br1662   1.919       .  S
C1647      C1648   1.404       .  A
C1647      H1651   1.081       .  S
C1648      C1652   1.480       .  S
C1648      C1649   1.407       .  A
C1649      C1650   1.398       .  A
C1649     Br1661   1.920       .  S
C1650      H1653   1.080       .  S
C1652      C1654   1.403       .  A
C1652      C1658   1.405       .  A
C1654      C1655   1.404       .  A
C1654      H1659   1.083       .  S
C1655      C1656   1.418       .  A
C1655     Br1663   1.921       .  S
C1656      C1657   1.408       .  A
C1657      C1658   1.396       .  A
C1657      H1660   1.083       .  S
C1658     Br1664   1.920       .  S
C1665      C1666   1.413       .  A
C1665      C1670   1.406       .  A
C1666      C1667   1.406       .  A
C1666     Br1682   1.918       .  S
C1667      C1668   1.404       .  A
C1667      H1671   1.083       .  S
C1668      C1672   1.476       .  S
C1668      C1669   1.404       .  A
C1669      C1670   1.392       .  A
C1669     Br1681   1.920       .  S
C1670      H1673   1.084       .  S
C1672      C1674   1.401       .  A
C1672      C1678   1.405       .  A
C1674      C1675   1.399       .  A
C1674      H1679   1.083       .  S
C1675      C1676   1.415       .  A
C1675     Br1683   1.922       .  S
C1676      C1677   1.407       .  A
C1677      C1678   1.400       .  A
C1677      H1680   1.082       .  S
C1678     Br1684   1.917       .  S
C1685      C1686   1.418       .  A
C1685      C1690   1.407       .  A
C1686      C1687   1.400       .  A
C1686     Br1702   1.922       .  S
C1687      C1688   1.400       .  A
C1687      H1691   1.082       .  S
C1688      C1692   1.479   1_556  S
C1688      C1689   1.406       .  A
C1689      C1690   1.400       .  A
C1689     Br1701   1.918       .  S
C1690      H1693   1.082       .  S
C1692      C1694   1.402       .  A
C1692      C1698   1.407       .  A
C1694      C1695   1.401       .  A
C1694      H1699   1.081       .  S
C1695      C1696   1.413       .  A
C1695     Br1703   1.920       .  S
C1696      C1697   1.406       .  A
C1697      C1698   1.399       .  A
C1697      H1700   1.082       .  S
C1698     Br1704   1.919       .  S
C1705      C1706   1.413       .  A
C1705      C1710   1.404       .  A
C1706      C1707   1.401       .  A
C1706     Br1722   1.920       .  S
C1707      C1708   1.403       .  A
C1707      H1711   1.081       .  S
C1708      C1712   1.477       .  S
C1708      C1709   1.408       .  A
C1709      C1710   1.396       .  A
C1709     Br1721   1.921       .  S
C1710      H1713   1.076       .  S
C1712      C1714   1.400       .  A
C1712      C1718   1.405       .  A
C1714      C1715   1.398       .  A
C1714      H1719   1.082       .  S
C1715      C1716   1.417       .  A
C1715     Br1723   1.922       .  S
C1716      C1717   1.408       .  A
C1717      C1718   1.399       .  A
C1717      H1720   1.082       .  S
C1718     Br1724   1.919       .  S
C1725      C1726   1.416       .  A
C1725      C1730   1.407       .  A
C1726      C1727   1.403       .  A
C1726     Br1742   1.920       .  S
C1727      C1728   1.403       .  A
C1727      H1731   1.083       .  S
C1728      C1732   1.484   1_545  S
C1728      C1729   1.407       .  A
C1729      C1730   1.400       .  A
C1729     Br1741   1.919       .  S
C1730      H1733   1.082       .  S
C1732      C1734   1.401       .  A
C1732      C1738   1.409       .  A
C1734      C1735   1.402       .  A
C1734      H1739   1.082       .  S
C1735      C1736   1.417       .  A
C1735     Br1743   1.921       .  S
C1736      C1737   1.407       .  A
C1737      C1738   1.400       .  A
C1737      H1740   1.081       .  S
C1738     Br1744   1.920       .  S
C1745      C1746   1.417       .  A
C1745      C1750   1.407       .  A
C1746      C1747   1.401       .  A
C1746     Br1762   1.920       .  S
C1747      C1748   1.401       .  A
C1747      H1751   1.082       .  S
C1748      C1752   1.478       .  S
C1748      C1749   1.406       .  A
C1749      C1750   1.399       .  A
C1749     Br1761   1.920       .  S
C1750      H1753   1.081       .  S
C1752      C1754   1.398       .  A
C1752      C1758   1.405       .  A
C1754      C1755   1.397       .  A
C1754      H1759   1.082       .  S
C1755      C1756   1.420       .  A
C1755     Br1763   1.924       .  S
C1756      C1757   1.410       .  A
C1757      C1758   1.402       .  A
C1757      H1760   1.083       .  S
C1758     Br1764   1.917       .  S
C1765      C1766   1.417       .  A
C1765      C1770   1.407       .  A
C1766      C1767   1.398       .  A
C1766     Br1782   1.923       .  S
C1767      C1768   1.401       .  A
C1767      H1771   1.081       .  S
C1768      C1772   1.485       .  S
C1768      C1769   1.410       .  A
C1769      C1770   1.402       .  A
C1769     Br1781   1.920       .  S
C1770      H1773   1.082       .  S
C1772      C1774   1.402       .  A
C1772      C1778   1.410       .  A
C1774      C1775   1.397       .  A
C1774      H1779   1.081       .  S
C1775      C1776   1.415       .  A
C1775     Br1783   1.922       .  S
C1776      C1777   1.407       .  A
C1777      C1778   1.403       .  A
C1777      H1780   1.082       .  S
C1778     Br1784   1.919       .  S
C1785      C1786   1.417       .  A
C1785      C1790   1.408       .  A
C1786      C1787   1.401       .  A
C1786     Br1802   1.921       .  S
C1787      C1788   1.401       .  A
C1787      H1791   1.081       .  S
C1788      C1792   1.479       .  S
C1788      C1789   1.406       .  A
C1789      C1790   1.401       .  A
C1789     Br1801   1.918       .  S
C1790      H1793   1.082       .  S
C1792      C1794   1.401       .  A
C1792      C1798   1.408       .  A
C1794      C1795   1.398       .  A
C1794      H1799   1.081       .  S
C1795      C1796   1.413       .  A
C1795     Br1803   1.922       .  S
C1796      C1797   1.406       .  A
C1797      C1798   1.402       .  A
C1797      H1800   1.082       .  S
C1798     Br1804   1.917       .  S
C1805      C1806   1.417       .  A
C1805      C1810   1.409       .  A
C1806      C1807   1.401       .  A
C1806     Br1822   1.921       .  S
C1807      C1808   1.401       .  A
C1807      H1811   1.082       .  S
C1808      C1812   1.479       .  S
C1808      C1809   1.405       .  A
C1809      C1810   1.399       .  A
C1809     Br1821   1.919       .  S
C1810      H1813   1.082       .  S
C1812      C1814   1.400       .  A
C1812      C1818   1.405       .  A
C1814      C1815   1.399       .  A
C1814      H1819   1.082       .  S
C1815      C1816   1.419       .  A
C1815     Br1823   1.923       .  S
C1816      C1817   1.409       .  A
C1817      C1818   1.401       .  A
C1817      H1820   1.082       .  S
C1818     Br1824   1.918       .  S
C1825      C1826   1.418       .  A
C1825      C1830   1.408       .  A
C1826      C1827   1.400       .  A
C1826     Br1842   1.922       .  S
C1827      C1828   1.402       .  A
C1827      H1831   1.081       .  S
C1828      C1832   1.484       .  S
C1828      C1829   1.407       .  A
C1829      C1830   1.400       .  A
C1829     Br1841   1.919       .  S
C1830      H1833   1.081       .  S
C1832      C1834   1.403       .  A
C1832      C1838   1.408       .  A
C1834      C1835   1.403       .  A
C1834      H1839   1.081       .  S
C1835      C1836   1.416       .  A
C1835     Br1843   1.919       .  S
C1836      C1837   1.407       .  A
C1837      C1838   1.398       .  A
C1837      H1840   1.082       .  S
C1838     Br1844   1.920       .  S
C1845      C1846   1.417       .  A
C1845      C1850   1.409       .  A
C1846      C1847   1.400       .  A
C1846     Br1862   1.920       .  S
C1847      C1848   1.402       .  A
C1847      H1851   1.083       .  S
C1848      C1852   1.480       .  S
C1848      C1849   1.406       .  A
C1849      C1850   1.398       .  A
C1849     Br1861   1.920       .  S
C1850      H1853   1.083       .  S
C1852      C1854   1.401       .  A
C1852      C1858   1.407       .  A
C1854      C1855   1.396       .  A
C1854      H1859   1.084       .  S
C1855      C1856   1.415       .  A
C1855     Br1863   1.922       .  S
C1856      C1857   1.408       .  A
C1857      C1858   1.401       .  A
C1857      H1860   1.082       .  S
C1858     Br1864   1.918       .  S
C1865      C1866   1.415       .  A
C1865      C1870   1.406       .  A
C1866      C1867   1.401       .  A
C1866     Br1882   1.920       .  S
C1867      C1868   1.402       .  A
C1867      H1871   1.082       .  S
C1868      C1872   1.483       .  S
C1868      C1869   1.411       .  A
C1869      C1870   1.398       .  A
C1869     Br1881   1.922       .  S
C1870      H1873   1.081       .  S
C1872      C1874   1.404       .  A
C1872      C1878   1.408       .  A
C1874      C1875   1.400       .  A
C1874      H1879   1.082       .  S
C1875      C1876   1.413       .  A
C1875     Br1883   1.921       .  S
C1876      C1877   1.406       .  A
C1877      C1878   1.398       .  A
C1877      H1880   1.083       .  S
C1878     Br1884   1.919       .  S
C1885      C1886   1.416       .  A
C1885      C1890   1.408       .  A
C1886      C1887   1.400       .  A
C1886     Br1902   1.921       .  S
C1887      C1888   1.402       .  A
C1887      H1891   1.083       .  S
C1888      C1892   1.481       .  S
C1888      C1889   1.406       .  A
C1889      C1890   1.400       .  A
C1889     Br1901   1.919       .  S
C1890      H1893   1.083       .  S
C1892      C1894   1.400       .  A
C1892      C1898   1.406       .  A
C1894      C1895   1.398       .  A
C1894      H1899   1.082       .  S
C1895      C1896   1.419       .  A
C1895     Br1903   1.923       .  S
C1896      C1897   1.409       .  A
C1897      C1898   1.401       .  A
C1897      H1900   1.083       .  S
C1898     Br1904   1.918       .  S
C1905      C1906   1.417       .  A
C1905      C1910   1.405       .  A
C1906      C1907   1.405       .  A
C1906     Br1922   1.920       .  S
C1907      C1908   1.402       .  A
C1907      H1911   1.083       .  S
C1908      C1912   1.477       .  S
C1908      C1909   1.407       .  A
C1909      C1910   1.393       .  A
C1909     Br1921   1.922       .  S
C1910      H1913   1.084       .  S
C1912      C1914   1.400       .  A
C1912      C1918   1.405       .  A
C1914      C1915   1.400       .  A
C1914      H1919   1.082       .  S
C1915      C1916   1.418       .  A
C1915     Br1923   1.921       .  S
C1916      C1917   1.408       .  A
C1917      C1918   1.398       .  A
C1917      H1920   1.082       .  S
C1918     Br1924   1.919       .  S
C1925      C1926   1.415       .  A
C1925      C1930   1.408       .  A
C1926      C1927   1.397       .  A
C1926     Br1942   1.922       .  S
C1927      C1928   1.401       .  A
C1927      H1931   1.081       .  S
C1928      C1932   1.481       .  S
C1928      C1929   1.408       .  A
C1929      C1930   1.402       .  A
C1929     Br1941   1.919       .  S
C1930      H1933   1.082       .  S
C1932      C1934   1.401       .  A
C1932      C1938   1.408       .  A
C1934      C1935   1.400       .  A
C1934      H1939   1.083       .  S
C1935      C1936   1.418       .  A
C1935     Br1943   1.922       .  S
C1936      C1937   1.408       .  A
C1937      C1938   1.399       .  A
C1937      H1940   1.082       .  S
C1938     Br1944   1.920       .  S
C1945      C1946   1.419       .  A
C1945      C1950   1.408       .  A
C1946      C1947   1.403       .  A
C1946     Br1962   1.921       .  S
C1947      C1948   1.401       .  A
C1947      H1951   1.082       .  S
C1948      C1952   1.480       .  S
C1948      C1949   1.404       .  A
C1949      C1950   1.397       .  A
C1949     Br1961   1.918       .  S
C1950      H1953   1.082       .  S
C1952      C1954   1.402       .  A
C1952      C1958   1.405       .  A
C1954      C1955   1.405       .  A
C1954      H1959   1.082       .  S
C1955      C1956   1.417       .  A
C1955     Br1963   1.920       .  S
C1956      C1957   1.407       .  A
C1957      C1958   1.398       .  A
C1957      H1960   1.082       .  S
C1958     Br1964   1.920       .  S
C1965      C1966   1.420       .  A
C1965      C1970   1.409       .  A
C1966      C1967   1.401       .  A
C1966     Br1982   1.922       .  S
C1967      C1968   1.400       .  A
C1967      H1971   1.082       .  S
C1968      C1972   1.482       .  S
C1968      C1969   1.406       .  A
C1969      C1970   1.402       .  A
C1969     Br1981   1.918       .  S
C1970      H1973   1.081       .  S
C1972      C1974   1.404       .  A
C1972      C1978   1.407       .  A
C1974      C1975   1.405       .  A
C1974      H1979   1.082       .  S
C1975      C1976   1.414       .  A
C1975     Br1983   1.919       .  S
C1976      C1977   1.405       .  A
C1977      C1978   1.397       .  A
C1977      H1980   1.082       .  S
C1978     Br1984   1.919       .  S
C1985      C1986   1.416       .  A
C1985      C1990   1.407       .  A
C1986      C1987   1.402       .  A
C1986     Br2002   1.920       .  S
C1987      C1988   1.401       .  A
C1987      H1991   1.082       .  S
C1988      C1992   1.475       .  S
C1988      C1989   1.404       .  A
C1989      C1990   1.396       .  A
C1989     Br2001   1.919       .  S
C1990      H1993   1.081       .  S
C1992      C1994   1.401       .  A
C1992      C1998   1.403       .  A
C1994      C1995   1.404       .  A
C1994      H1999   1.083       .  S
C1995      C1996   1.417       .  A
C1995     Br2003   1.919       .  S
C1996      C1997   1.410       .  A
C1997      C1998   1.395       .  A
C1997      H2000   1.083       .  S
C1998     Br2004   1.921       .  S
C2005      C2006   1.417       .  A
C2005      C2010   1.408       .  A
C2006      C2007   1.399       .  A
C2006     Br2022   1.921       .  S
C2007      C2008   1.399       .  A
C2007      H2011   1.082       .  S
C2008      C2012   1.477       .  S
C2008      C2009   1.406       .  A
C2009      C2010   1.401       .  A
C2009     Br2021   1.919       .  S
C2010      H2013   1.082       .  S
C2012      C2014   1.402       .  A
C2012      C2018   1.407       .  A
C2014      C2015   1.400       .  A
C2014      H2019   1.081       .  S
C2015      C2016   1.412       .  A
C2015     Br2023   1.921       .  S
C2016      C2017   1.405       .  A
C2017      C2018   1.398       .  A
C2017      H2020   1.082       .  S
C2018     Br2024   1.919       .  S
C2025      C2026   1.416       .  A
C2025      C2030   1.407       .  A
C2026      C2027   1.404       .  A
C2026     Br2042   1.920       .  S
C2027      C2028   1.402       .  A
C2027      H2031   1.082       .  S
C2028      C2032   1.478       .  S
C2028      C2029   1.406       .  A
C2029      C2030   1.395       .  A
C2029     Br2041   1.921       .  S
C2030      H2033   1.082       .  S
C2032      C2034   1.402       .  A
C2032      C2038   1.404       .  A
C2034      C2035   1.403       .  A
C2034      H2039   1.082       .  S
C2035      C2036   1.417       .  A
C2035     Br2043   1.921       .  S
C2036      C2037   1.408       .  A
C2037      C2038   1.396       .  A
C2037      H2040   1.082       .  S
C2038     Br2044   1.919       .  S
C2045      C2046   1.414       .  A
C2045      C2050   1.405       .  A
C2046      C2047   1.403       .  A
C2046     Br2062   1.920       .  S
C2047      C2048   1.404       .  A
C2047      H2051   1.084       .  S
C2048      C2052   1.485       .  S
C2048      C2049   1.410       .  A
C2049      C2050   1.397       .  A
C2049     Br2061   1.921       .  S
C2050      H2053   1.083       .  S
C2052      C2054   1.403       .  A
C2052      C2058   1.407       .  A
C2054      C2055   1.401       .  A
C2054      H2059   1.082       .  S
C2055      C2056   1.417       .  A
C2055     Br2063   1.921       .  S
C2056      C2057   1.408       .  A
C2057      C2058   1.400       .  A
C2057      H2060   1.083       .  S
C2058     Br2064   1.919       .  S
C2065      C2066   1.414       .  A
C2065      C2070   1.405       .  A
C2066      C2067   1.400       .  A
C2066     Br2082   1.920       .  S
C2067      C2068   1.402       .  A
C2067      H2071   1.082       .  S
C2068      C2072   1.477   1_545  S
C2068      C2069   1.406       .  A
C2069      C2070   1.395       .  A
C2069     Br2081   1.919       .  S
C2070      H2073   1.082       .  S
C2072      C2074   1.400       .  A
C2072      C2078   1.405       .  A
C2074      C2075   1.397       .  A
C2074      H2079   1.082       .  S
C2075      C2076   1.418       .  A
C2075     Br2083   1.922       .  S
C2076      C2077   1.410       .  A
C2077      C2078   1.400       .  A
C2077      H2080   1.081       .  S
C2078     Br2084   1.919       .  S
C2085      C2086   1.418       .  A
C2085      C2090   1.407       .  A
C2086      C2087   1.402       .  A
C2086     Br2102   1.921       .  S
C2087      C2088   1.400       .  A
C2087      H2091   1.082       .  S
C2088      C2092   1.474       .  S
C2088      C2089   1.404       .  A
C2089      C2090   1.394       .  A
C2089     Br2101   1.920       .  S
C2090      H2093   1.082       .  S
C2092      C2094   1.400       .  A
C2092      C2098   1.404       .  A
C2094      C2095   1.400       .  A
C2094      H2099   1.082       .  S
C2095      C2096   1.418       .  A
C2095     Br2103   1.921       .  S
C2096      C2097   1.408       .  A
C2097      C2098   1.396       .  A
C2097      H2100   1.081       .  S
C2098     Br2104   1.919       .  S
C2105      C2106   1.417       .  A
C2105      C2110   1.406       .  A
C2106      C2107   1.400       .  A
C2106     Br2122   1.922       .  S
C2107      C2108   1.400       .  A
C2107      H2111   1.082       .  S
C2108      C2112   1.480       .  S
C2108      C2109   1.407       .  A
C2109      C2110   1.400       .  A
C2109     Br2121   1.918       .  S
C2110      H2113   1.082       .  S
C2112      C2114   1.402       .  A
C2112      C2118   1.407       .  A
C2114      C2115   1.402   1_455  A
C2114      H2119   1.081       .  S
C2115      C2116   1.416       .  A
C2115     Br2123   1.921       .  S
C2116      C2117   1.406       .  A
C2117      C2118   1.399   1_655  A
C2117      H2120   1.081       .  S
C2118     Br2124   1.919       .  S
C2125      C2126   1.413       .  A
C2125      C2130   1.405       .  A
C2126      C2127   1.402       .  A
C2126     Br2142   1.919       .  S
C2127      C2128   1.401       .  A
C2127      H2131   1.083       .  S
C2128      C2132   1.475       .  S
C2128      C2129   1.406       .  A
C2129      C2130   1.396       .  A
C2129     Br2141   1.920       .  S
C2130      H2133   1.083       .  S
C2132      C2134   1.399       .  A
C2132      C2138   1.404       .  A
C2134      C2135   1.401       .  A
C2134      H2139   1.083       .  S
C2135      C2136   1.419       .  A
C2135     Br2143   1.921       .  S
C2136      C2137   1.408       .  A
C2137      C2138   1.396       .  A
C2137      H2140   1.082       .  S
C2138     Br2144   1.919       .  S
C2145      C2146   1.414       .  A
C2145      C2150   1.406       .  A
C2146      C2147   1.396       .  A
C2146     Br2162   1.923       .  S
C2147      C2148   1.401       .  A
C2147      H2151   1.082       .  S
C2148      C2152   1.479       .  S
C2148      C2149   1.408       .  A
C2149      C2150   1.400       .  A
C2149     Br2161   1.919       .  S
C2150      H2153   1.082       .  S
C2152      C2154   1.402       .  A
C2152      C2158   1.408       .  A
C2154      C2155   1.397       .  A
C2154      H2159   1.081       .  S
C2155      C2156   1.414       .  A
C2155     Br2163   1.923       .  S
C2156      C2157   1.405       .  A
C2157      C2158   1.399       .  A
C2157      H2160   1.082       .  S
C2158     Br2164   1.918       .  S
C2165      C2166   1.416       .  A
C2165      C2170   1.407       .  A
C2166      C2167   1.402       .  A
C2166     Br2182   1.921       .  S
C2167      C2168   1.402       .  A
C2167      H2171   1.081       .  S
C2168      C2172   1.481   1_556  S
C2168      C2169   1.407       .  A
C2169      C2170   1.401       .  A
C2169     Br2181   1.918       .  S
C2170      H2173   1.081       .  S
C2172      C2174   1.399       .  A
C2172      C2178   1.407       .  A
C2174      C2175   1.398       .  A
C2174      H2179   1.081       .  S
C2175      C2176   1.418       .  A
C2175     Br2183   1.922       .  S
C2176      C2177   1.410       .  A
C2177      C2178   1.404       .  A
C2177      H2180   1.082       .  S
C2178     Br2184   1.918       .  S
C2185      C2186   1.419       .  A
C2185      C2190   1.408       .  A
C2186      C2187   1.404       .  A
C2186     Br2202   1.921       .  S
C2187      C2188   1.402       .  A
C2187      H2191   1.082       .  S
C2188      C2192   1.482       .  S
C2188      C2189   1.406       .  A
C2189      C2190   1.397       .  A
C2189     Br2201   1.920       .  S
C2190      H2193   1.082       .  S
C2192      C2194   1.401       .  A
C2192      C2198   1.406       .  A
C2194      C2195   1.402       .  A
C2194      H2199   1.082       .  S
C2195      C2196   1.419       .  A
C2195     Br2203   1.921       .  S
C2196      C2197   1.409       .  A
C2197      C2198   1.400       .  A
C2197      H2200   1.081       .  S
C2198     Br2204   1.919       .  S
C2205      C2206   1.414       .  A
C2205      C2210   1.405       .  A
C2206      C2207   1.399       .  A
C2206     Br2222   1.922       .  S
C2207      C2208   1.401       .  A
C2207      H2211   1.081       .  S
C2208      C2212   1.476       .  S
C2208      C2209   1.406       .  A
C2209      C2210   1.399       .  A
C2209     Br2221   1.918       .  S
C2210      H2213   1.082       .  S
C2212      C2214   1.401       .  A
C2212      C2218   1.407       .  A
C2214      C2215   1.394       .  A
C2214      H2219   1.082       .  S
C2215      C2216   1.410       .  A
C2215     Br2223   1.922       .  S
C2216      C2217   1.405       .  A
C2217      C2218   1.403       .  A
C2217      H2220   1.082       .  S
C2218     Br2224   1.917       .  S
C2225      C2226   1.416       .  A
C2225      C2230   1.407       .  A
C2226      C2227   1.399       .  A
C2226     Br2242   1.923       .  S
C2227      C2228   1.402       .  A
C2227      H2231   1.082       .  S
C2228      C2232   1.485       .  S
C2228      C2229   1.409       .  A
C2229      C2230   1.401       .  A
C2229     Br2241   1.920       .  S
C2230      H2233   1.082       .  S
C2232      C2234   1.402       .  A
C2232      C2238   1.410       .  A
C2234      C2235   1.398       .  A
C2234      H2239   1.083       .  S
C2235      C2236   1.415       .  A
C2235     Br2243   1.923       .  S
C2236      C2237   1.405       .  A
C2237      C2238   1.402       .  A
C2237      H2240   1.083       .  S
C2238     Br2244   1.919       .  S
C2245      C2246   1.416       .  A
C2245      C2250   1.406       .  A
C2246      C2247   1.403       .  A
C2246     Br2262   1.920       .  S
C2247      C2248   1.403       .  A
C2247      H2251   1.082       .  S
C2248      C2252   1.479   1_556  S
C2248      C2249   1.405       .  A
C2249      C2250   1.396       .  A
C2249     Br2261   1.920       .  S
C2250      H2253   1.083       .  S
C2252      C2254   1.403       .  A
C2252      C2258   1.406       .  A
C2254      C2255   1.399       .  A
C2254      H2259   1.081       .  S
C2255      C2256   1.413       .  A
C2255     Br2263   1.920       .  S
C2256      C2257   1.406       .  A
C2257      C2258   1.399       .  A
C2257      H2260   1.082       .  S
C2258     Br2264   1.918       .  S
C2265      C2266   1.414       .  A
C2265      C2270   1.406       .  A
C2266      C2267   1.398       .  A
C2266     Br2282   1.921       .  S
C2267      C2268   1.401       .  A
C2267      H2271   1.081       .  S
C2268      C2272   1.478       .  S
C2268      C2269   1.407       .  A
C2269      C2270   1.399       .  A
C2269     Br2281   1.919       .  S
C2270      H2273   1.082       .  S
C2272      C2274   1.399   1_565  A
C2272      C2278   1.406   1_565  A
C2274      C2275   1.397       .  A
C2274      H2279   1.082   1_545  S
C2275      C2276   1.419       .  A
C2275     Br2283   1.923       .  S
C2276      C2277   1.409       .  A
C2277      C2278   1.402       .  A
C2277      H2280   1.082       .  S
C2278     Br2284   1.919       .  S
C2285      C2286   1.418       .  A
C2285      C2290   1.408       .  A
C2286      C2287   1.397       .  A
C2286     Br2302   1.923       .  S
C2287      C2288   1.400       .  A
C2287      H2291   1.083       .  S
C2288      C2292   1.479       .  S
C2288      C2289   1.406       .  A
C2289      C2290   1.400       .  A
C2289     Br2301   1.917       .  S
C2290      H2293   1.083       .  S
C2292      C2294   1.401       .  A
C2292      C2298   1.406       .  A
C2294      C2295   1.399       .  A
C2294      H2299   1.082       .  S
C2295      C2296   1.417       .  A
C2295     Br2303   1.922       .  S
C2296      C2297   1.408       .  A
C2297      C2298   1.400       .  A
C2297      H2300   1.082       .  S
C2298     Br2304   1.919       .  S
C2305      C2306   1.417       .  A
C2305      C2310   1.408       .  A
C2306      C2307   1.401   1_655  A
C2306     Br2322   1.921       .  S
C2307      C2308   1.401       .  A
C2307      H2311   1.082       .  S
C2308      C2312   1.479       .  S
C2308      C2309   1.406       .  A
C2309      C2310   1.400   1_455  A
C2309     Br2321   1.919       .  S
C2310      H2313   1.082       .  S
C2312      C2314   1.400       .  A
C2312      C2318   1.406       .  A
C2314      C2315   1.399       .  A
C2314      H2319   1.081       .  S
C2315      C2316   1.418       .  A
C2315     Br2323   1.922       .  S
C2316      C2317   1.409       .  A
C2317      C2318   1.401       .  A
C2317      H2320   1.082       .  S
C2318     Br2324   1.918       .  S
C2325      C2326   1.416       .  A
C2325      C2330   1.409       .  A
C2326      C2327   1.398       .  A
C2326     Br2342   1.921       .  S
C2327      C2328   1.399       .  A
C2327      H2331   1.081       .  S
C2328      C2332   1.476       .  S
C2328      C2329   1.406       .  A
C2329      C2330   1.401       .  A
C2329     Br2341   1.919       .  S
C2330      H2333   1.081       .  S
C2332      C2334   1.402       .  A
C2332      C2338   1.405       .  A
C2334      C2335   1.404       .  A
C2334      H2339   1.080       .  S
C2335      C2336   1.416       .  A
C2335     Br2343   1.919       .  S
C2336      C2337   1.407       .  A
C2337      C2338   1.395       .  A
C2337      H2340   1.081       .  S
C2338     Br2344   1.920       .  S
C2345      C2346   1.416       .  A
C2345      C2350   1.405       .  A
C2346      C2347   1.402       .  A
C2346     Br2362   1.921       .  S
C2347      C2348   1.400       .  A
C2347      H2351   1.082       .  S
C2348      C2352   1.473       .  S
C2348      C2349   1.405       .  A
C2349      C2350   1.395       .  A
C2349     Br2361   1.920       .  S
C2350      H2353   1.082       .  S
C2352      C2354   1.400       .  A
C2352      C2358   1.405       .  A
C2354      C2355   1.402       .  A
C2354      H2359   1.083       .  S
C2355      C2356   1.416       .  A
C2355     Br2363   1.919       .  S
C2356      C2357   1.408       .  A
C2357      C2358   1.394       .  A
C2357      H2360   1.083       .  S
C2358     Br2364   1.921       .  S
C2365      C2366   1.417       .  A
C2365      C2370   1.408       .  A
C2366      C2367   1.398       .  A
C2366     Br2382   1.922       .  S
C2367      C2368   1.401       .  A
C2367      H2371   1.081       .  S
C2368      C2372   1.482       .  S
C2368      C2369   1.407       .  A
C2369      C2370   1.402       .  A
C2369     Br2381   1.918       .  S
C2370      H2373   1.081       .  S
C2372      C2374   1.403       .  A
C2372      C2378   1.406       .  A
C2374      C2375   1.404       .  A
C2374      H2379   1.082       .  S
C2375      C2376   1.416       .  A
C2375     Br2383   1.920       .  S
C2376      C2377   1.407       .  A
C2377      C2378   1.397       .  A
C2377      H2380   1.082       .  S
C2378     Br2384   1.919       .  S
C2385      C2386   1.418       .  A
C2385      C2390   1.408       .  A
C2386      C2387   1.403       .  A
C2386     Br2402   1.920       .  S
C2387      C2388   1.400       .  A
C2387      H2391   1.082       .  S
C2388      C2392   1.477       .  S
C2388      C2389   1.404       .  A
C2389      C2390   1.397       .  A
C2389     Br2401   1.919       .  S
C2390      H2393   1.081       .  S
C2392      C2394   1.398       .  A
C2392      C2398   1.405       .  A
C2394      C2395   1.397       .  A
C2394      H2399   1.082       .  S
C2395      C2396   1.419       .  A
C2395     Br2403   1.924       .  S
C2396      C2397   1.410       .  A
C2397      C2398   1.402       .  A
C2397      H2400   1.081       .  S
C2398     Br2404   1.917       .  S
C2405      C2406   1.418       .  A
C2405      C2410   1.409       .  A
C2406      C2407   1.401       .  A
C2406     Br2422   1.920       .  S
C2407      C2408   1.401       .  A
C2407      H2411   1.082       .  S
C2408      C2412   1.480       .  S
C2408      C2409   1.406       .  A
C2409      C2410   1.399       .  A
C2409     Br2421   1.921       .  S
C2410      H2413   1.082       .  S
C2412      C2414   1.402       .  A
C2412      C2418   1.409       .  A
C2414      C2415   1.399       .  A
C2414      H2419   1.080       .  S
C2415      C2416   1.413       .  A
C2415     Br2423   1.921       .  S
C2416      C2417   1.405       .  A
C2417      C2418   1.400       .  A
C2417      H2420   1.081       .  S
C2418     Br2424   1.919       .  S
C2425      C2426   1.412       .  A
C2425      C2430   1.405       .  A
C2426      C2427   1.397       .  A
C2426     Br2442   1.921       .  S
C2427      C2428   1.403       .  A
C2427      H2431   1.082       .  S
C2428      C2432   1.487       .  S
C2428      C2429   1.412       .  A
C2429      C2430   1.401       .  A
C2429     Br2441   1.919       .  S
C2430      H2433   1.083       .  S
C2432      C2434   1.404       .  A
C2432      C2438   1.412       .  A
C2434      C2435   1.399       .  A
C2434      H2439   1.081       .  S
C2435      C2436   1.413       .  A
C2435     Br2443   1.922       .  S
C2436      C2437   1.403       .  A
C2437      C2438   1.401       .  A
C2437      H2440   1.081       .  S
C2438     Br2444   1.920       .  S
C2445      C2446   1.417       .  A
C2445      C2450   1.408       .  A
C2446      C2447   1.400       .  A
C2446     Br2462   1.922       .  S
C2447      C2448   1.402       .  A
C2447      H2451   1.082       .  S
C2448      C2452   1.486       .  S
C2448      C2449   1.408       .  A
C2449      C2450   1.400       .  A
C2449     Br2461   1.919       .  S
C2450      H2453   1.083       .  S
C2452      C2454   1.403       .  A
C2452      C2458   1.410       .  A
C2454      C2455   1.398       .  A
C2454      H2459   1.083       .  S
C2455      C2456   1.415       .  A
C2455     Br2463   1.923       .  S
C2456      C2457   1.406       .  A
C2457      C2458   1.402       .  A
C2457      H2460   1.082       .  S
C2458     Br2464   1.919       .  S
C2465      C2466   1.419       .  A
C2465      C2470   1.409       .  A
C2466      C2467   1.396       .  A
C2466     Br2482   1.924       .  S
C2467      C2468   1.399       .  A
C2467      H2471   1.081       .  S
C2468      C2472   1.478       .  S
C2468      C2469   1.406       .  A
C2469      C2470   1.401       .  A
C2469     Br2481   1.918       .  S
C2470      H2473   1.081       .  S
C2472      C2474   1.400       .  A
C2472      C2478   1.406       .  A
C2474      C2475   1.399       .  A
C2474      H2479   1.082       .  S
C2475      C2476   1.417       .  A
C2475     Br2483   1.921       .  S
C2476      C2477   1.408       .  A
C2477      C2478   1.398       .  A
C2477      H2480   1.082       .  S
C2478     Br2484   1.920       .  S
C2485      C2486   1.415       .  A
C2485      C2490   1.406       .  A
C2486      C2487   1.401       .  A
C2486     Br2502   1.920       .  S
C2487      C2488   1.400       .  A
C2487      H2491   1.082       .  S
C2488      C2492   1.471       .  S
C2488      C2489   1.404       .  A
C2489      C2490   1.393       .  A
C2489     Br2501   1.920       .  S
C2490      H2493   1.083       .  S
C2492      C2494   1.399       .  A
C2492      C2498   1.403       .  A
C2494      C2495   1.397       .  A
C2494      H2499   1.083       .  S
C2495      C2496   1.418       .  A
C2495     Br2503   1.923       .  S
C2496      C2497   1.408       .  A
C2497      C2498   1.398       .  A
C2497      H2500   1.082       .  S
C2498     Br2504   1.918       .  S
C2505      C2506   1.415       .  A
C2505      C2510   1.405       .  A
C2506      C2507   1.400       .  A
C2506     Br2522   1.921       .  S
C2507      C2508   1.401       .  A
C2507      H2511   1.082       .  S
C2508      C2512   1.477       .  S
C2508      C2509   1.407       .  A
C2509      C2510   1.397       .  A
C2509     Br2521   1.920       .  S
C2510      H2513   1.081       .  S
C2512      C2514   1.398       .  A
C2512      C2518   1.406       .  A
C2514      C2515   1.396       .  A
C2514      H2519   1.081       .  S
C2515      C2516   1.418       .  A
C2515     Br2523   1.923       .  S
C2516      C2517   1.408       .  A
C2517      C2518   1.402       .  A
C2517      H2520   1.082       .  S
C2518     Br2524   1.918       .  S
C2525      C2526   1.415       .  A
C2525      C2530   1.407       .  A
C2526      C2527   1.400       .  A
C2526     Br2542   1.921       .  S
C2527      C2528   1.403       .  A
C2527      H2531   1.080       .  S
C2528      C2532   1.480       .  S
C2528      C2529   1.407       .  A
C2529      C2530   1.398       .  A
C2529     Br2541   1.920       .  S
C2530      H2533   1.082       .  S
C2532      C2534   1.401       .  A
C2532      C2538   1.407       .  A
C2534      C2535   1.396       .  A
C2534      H2539   1.083       .  S
C2535      C2536   1.415       .  A
C2535     Br2543   1.923       .  S
C2536      C2537   1.408       .  A
C2537      C2538   1.401       .  A
C2537      H2540   1.083       .  S
C2538     Br2544   1.918       .  S
