geometry optimzed in LAMMPS
_audit_creation_date              2020-12-01 
_audit_creation_method            'lammps2cif' 
_symmetry_space_group_name_H-M    'P1' 
_symmetry_Int_Tables_number       1 
_symmetry_cell_setting            triclinic 
loop_ 
_symmetry_equiv_pos_as_xyz 
  x,y,z 
_cell_length_a                    130.76245395 
_cell_length_b                    130.54905377318602 
_cell_length_c                    130.57313211787817 
_cell_angle_alpha                 90.05497637829933 
_cell_angle_beta                  90.14737828395783 
_cell_angle_gamma                 89.96229159620017 
loop_ 
_atom_site_label 
_atom_site_type_symbol 
_atom_site_fract_x 
_atom_site_fract_y 
_atom_site_fract_z 
_atom_site_charge 
N1          N  0.71101287  0.26934638  0.59230346    -0.02900
C2          C  0.70279792  0.26718290  0.59827063    -0.00300
C3          C  0.69387989  0.26947031  0.59300104    -0.23200
C4          C  0.69671378  0.27322311  0.58359045    -0.23400
C5          C  0.70727108  0.27309297  0.58336015    -0.00400
H6          H  0.68613838  0.26893458  0.59585838     0.13400
H7          H  0.69162464  0.27586815  0.57760118     0.13400
N8          N  0.78580898  0.25524465  0.59214554    -0.02900
C9          C  0.79330391  0.25452233  0.59933617    -0.00300
C10         C  0.80265847  0.25281163  0.59474145    -0.23200
C11         C  0.80090621  0.25231697  0.58440135    -0.23400
C12         C  0.79052935  0.25374337  0.58300279    -0.00400
H13         H  0.80992548  0.25165327  0.59855558     0.13400
H14         H  0.80650163  0.25047657  0.57859147     0.13400
N15         N  0.73159913  0.29215066  0.50582259    -0.02900
C16         C  0.72906745  0.29810707  0.49770435    -0.00300
C17         C  0.72386591  0.30671972  0.50100446    -0.23200
C18         C  0.72331046  0.30607267  0.51152979    -0.23400
C19         C  0.72810869  0.29703562  0.51428385    -0.00400
H20         H  0.72082087  0.31281122  0.49627783     0.13400
H21         H  0.71948796  0.31142009  0.51656977     0.13400
N22         N  0.77156179  0.22709472  0.50637303    -0.02900
C23         C  0.77425260  0.22096709  0.49844841    -0.00300
C24         C  0.78059474  0.21321875  0.50193084    -0.23200
C25         C  0.78194628  0.21480840  0.51229759    -0.23400
C26         C  0.77638685  0.22347840  0.51480779    -0.00400
H27         H  0.78403365  0.20718755  0.49740913     0.13400
H28         H  0.78673145  0.21032019  0.51736625     0.13400
N29         N  0.73934991  0.29563399  0.41399773    -0.02900
C30         C  0.73701613  0.30227679  0.40632400    -0.00300
C31         C  0.73546899  0.31198937  0.41027276    -0.23200
C32         C  0.73687808  0.31133753  0.42066860    -0.23400
C33         C  0.73915798  0.30122770  0.42278146    -0.00400
H34         H  0.73356178  0.31884179  0.40601446     0.13400
H35         H  0.73598397  0.31750108  0.42614377     0.13400
N36         N  0.75383640  0.22046302  0.41588773    -0.02900
C37         C  0.75484803  0.21359895  0.40811965    -0.00300
C38         C  0.75747536  0.20408361  0.41188808    -0.23200
C39         C  0.75816708  0.20507103  0.42232574    -0.23400
C40         C  0.75592015  0.21516700  0.42461352    -0.00400
H41         H  0.75867467  0.19714930  0.40750308     0.13400
H42         H  0.76026209  0.19910088  0.42768223     0.13400
O43         O  0.73567610  0.31681645  0.29609914    -0.73800
O44         O  0.73284740  0.31606684  0.32517653    -0.73900
O45         O  0.73328632  0.33124400  0.31052893    -0.73900
O46         O  0.73536306  0.30197463  0.31040564    -0.74000
O47         O  0.75223346  0.30317857  0.31254461    -0.73900
O48         O  0.75021464  0.33241876  0.31184534    -0.73900
O49         O  0.74969979  0.31758660  0.32703845    -0.73900
O50         O  0.75264972  0.31750054  0.29768516    -0.73900
Ni51       Ni  0.73369504  0.31654046  0.31054459     1.25400
Ni52       Ni  0.75180265  0.31778620  0.31239213     1.25400
C53         C  0.74458747  0.31707761  0.29209055     0.88300
C54         C  0.74081599  0.31598335  0.33090190     0.88300
C55         C  0.74146570  0.33666454  0.31051402     0.88300
C56         C  0.74415735  0.29775787  0.31141200     0.88500
O57         O  0.75164048  0.21524768  0.19525988    -0.73800
O58         O  0.75157322  0.18584794  0.19638881    -0.73900
O59         O  0.75048204  0.20037014  0.18111817    -0.73900
O60         O  0.75286379  0.20092901  0.21048017    -0.74000
O61         O  0.73589831  0.20059356  0.21184512    -0.73900
O62         O  0.73351424  0.20089206  0.18258577    -0.73900
O63         O  0.73459150  0.18597565  0.19739464    -0.73900
O64         O  0.73470016  0.21527705  0.19715035    -0.73900
Ni65       Ni  0.75225106  0.20055220  0.19575211     1.25400
Ni66       Ni  0.73408178  0.20064411  0.19726723     1.25400
C67         C  0.74312909  0.22008998  0.19589530     0.88300
C68         C  0.74307982  0.18106582  0.19749934     0.88300
C69         C  0.74159773  0.20133433  0.17706212     0.88300
C70         C  0.74477965  0.20067838  0.21602083     0.88500
O71         O  0.75266938  0.31578842  0.21007768    -0.73800
O72         O  0.75207545  0.31743205  0.18083498    -0.73900
O73         O  0.75259188  0.33134754  0.19663572    -0.73900
O74         O  0.75218222  0.30203474  0.19455580    -0.74000
O75         O  0.73515819  0.30216859  0.19472073    -0.73900
O76         O  0.73558744  0.33150273  0.19710929    -0.73900
O77         O  0.73505981  0.31770365  0.18118882    -0.73900
O78         O  0.73563792  0.31578472  0.21040741    -0.73900
Ni79       Ni  0.75297923  0.31667629  0.19547485     1.25400
Ni80       Ni  0.73475438  0.31684019  0.19582866     1.25400
C81         C  0.74425761  0.31553346  0.21507386     0.88300
C82         C  0.74344706  0.31728863  0.17615503     0.88300
C83         C  0.74416196  0.33623173  0.19780713     0.88300
C84         C  0.74363467  0.29724027  0.19431931     0.88500
O85         O  0.75675512  0.20114016  0.29848871    -0.73800
O86         O  0.75614103  0.20145238  0.32786588    -0.73900
O87         O  0.75623073  0.18659673  0.31307488    -0.73900
O88         O  0.75661235  0.21591624  0.31311057    -0.74000
O89         O  0.73956876  0.21613979  0.31286736    -0.73900
O90         O  0.73920146  0.18689314  0.31264534    -0.73900
O91         O  0.73910415  0.20179234  0.32756110    -0.73900
O92         O  0.73971783  0.20156480  0.29814500    -0.73900
Ni93       Ni  0.75703806  0.20124586  0.31318676     1.25400
Ni94       Ni  0.73879151  0.20156118  0.31282348     1.25400
C95         C  0.74832775  0.20130537  0.29346452     0.88300
C96         C  0.74755959  0.20212148  0.33255070     0.88300
C97         C  0.74765071  0.18191770  0.31235646     0.88300
C98         C  0.74814371  0.22085638  0.31299432     0.88500
N99         N  0.70832039  0.91861384  0.23978419    -0.02900
C100        C  0.70021827  0.91208106  0.24000970    -0.00300
C101        C  0.69193687  0.91625145  0.23491944    -0.23200
C102        C  0.69497146  0.92566362  0.23141645    -0.23400
C103        C  0.70500075  0.92697216  0.23451849    -0.00400
H104        H  0.68454615  0.91271976  0.23370204     0.13400
H105        H  0.69031792  0.93104313  0.22715820     0.13400
N106        N  0.77586763  0.91868670  0.27613600    -0.02900
C107        C  0.78403776  0.91223084  0.27650547    -0.00300
C108        C  0.79197876  0.91672449  0.28189078    -0.23200
C109        C  0.78866605  0.92626322  0.28485703    -0.23400
C110        C  0.77881768  0.92732368  0.28117348    -0.00400
H111        H  0.79939404  0.91339971  0.28350031     0.13400
H112        H  0.79303440  0.93190805  0.28907798     0.13400
N113        N  0.72791790  0.00649735  0.22147242    -0.02900
C114        C  0.72364813  0.99851587  0.21634526    -0.00300
C115        C  0.72046554  0.00164348  0.20673681    -0.23200
C116        C  0.72289172  0.01186268  0.20592118    -0.23400
C117        C  0.72746400  0.01466935  0.21506467    -0.00400
H118        H  0.71676158  0.99700102  0.20094708     0.13400
H119        H  0.72123915  0.01677479  0.19945507     0.13400
N120        N  0.75642578  0.00729486  0.29243353    -0.02900
C121        C  0.75630622  0.01541995  0.29892006    -0.00300
C122        C  0.75917043  0.01232336  0.30864357    -0.23200
C123        C  0.76113500  0.00196041  0.30806838    -0.23400
C124        C  0.75935926  0.99905392  0.29802891    -0.00400
H125        H  0.76007710  0.01711483  0.31534925     0.13400
H126        H  0.76365494  0.99709360  0.31428638     0.13400
N127        N  0.73619390  0.09841911  0.21756569    -0.02900
C128        C  0.73667914  0.10553617  0.20997700    -0.00300
C129        C  0.73379658  0.10124930  0.20071479    -0.23200
C130        C  0.73150120  0.09118873  0.20258712    -0.23400
C131        C  0.73308215  0.08963146  0.21291735    -0.00400
H132        H  0.73346120  0.10504516  0.19335468     0.13400
H133        H  0.72929772  0.08550650  0.19695905     0.13400
N134        N  0.75047007  0.09917077  0.29301496    -0.02900
C135        C  0.74911181  0.10613462  0.30066039    -0.00300
C136        C  0.75041721  0.10156460  0.31012099    -0.23200
C137        C  0.75254467  0.09145401  0.30832644    -0.23400
C138        C  0.75248522  0.09016752  0.29783613    -0.00400
H139        H  0.74997451  0.10522958  0.31754472     0.13400
H140        H  0.75374914  0.08558896  0.31405808     0.13400
N141        N  0.73159533  0.41978842  0.29304279    -0.02900
C142        C  0.73109821  0.41229148  0.30027497    -0.00300
C143        C  0.72728556  0.41623861  0.30933078    -0.23200
C144        C  0.72530127  0.42642384  0.30765530    -0.23400
C145        C  0.72801088  0.42842057  0.29764633    -0.00400
H146        H  0.72613507  0.41213595  0.31643427     0.13400
H147        H  0.72246722  0.43186844  0.31322392     0.13400
N148        N  0.75044054  0.41919051  0.21880836    -0.02900
C149        C  0.75038347  0.41185094  0.21138026    -0.00300
C150        C  0.75312882  0.41608595  0.20208453    -0.23200
C151        C  0.75492951  0.42631002  0.20378551    -0.23400
C152        C  0.75320608  0.42804652  0.21406041    -0.00400
H153        H  0.75368010  0.41214674  0.19480918     0.13400
H154        H  0.75694882  0.43195439  0.19807501     0.13400
N155        N  0.72475363  0.51193315  0.29382339    -0.02900
C156        C  0.72354355  0.50332377  0.29953930    -0.00300
C157        C  0.71952734  0.50582926  0.30899923    -0.23200
C158        C  0.71825326  0.51629415  0.30910339    -0.23400
C159        C  0.72151232  0.51989838  0.29969455    -0.00400
H160        H  0.71760896  0.50060869  0.31512997     0.13400
H161        H  0.71528244  0.52078564  0.31539725     0.13400
N162        N  0.76040998  0.51173490  0.22640323    -0.02900
C163        C  0.76106541  0.50369173  0.21980238    -0.00300
C164        C  0.76661678  0.50655446  0.21126581    -0.23200
C165        C  0.76953894  0.51659099  0.21272190    -0.23400
C166        C  0.76560592  0.51962502  0.22206284    -0.00400
H167        H  0.76856062  0.50177126  0.20478215     0.13400
H168        H  0.77396620  0.52120326  0.20747314     0.13400
N169        N  0.71070787  0.60209271  0.27999547    -0.02900
C170        C  0.70275026  0.60886918  0.27966795    -0.00300
C171        C  0.69429444  0.60477992  0.28449824    -0.23200
C172        C  0.69698398  0.59519631  0.28779342    -0.23400
C173        C  0.70703955  0.59365524  0.28494984    -0.00400
H174        H  0.68692578  0.60840820  0.28554486     0.13400
H175        H  0.69203676  0.58982102  0.29167531     0.13400
N176        N  0.77865088  0.60072108  0.24459213    -0.02900
C177        C  0.78648616  0.60759737  0.24438396    -0.00300
C178        C  0.79460359  0.60361572  0.23890054    -0.23200
C179        C  0.79171905  0.59406615  0.23560059    -0.23400
C180        C  0.78192234  0.59241969  0.23917711    -0.00400
H181        H  0.80182151  0.60734265  0.23732887     0.13400
H182        H  0.79633178  0.58881809  0.23115120     0.13400
N183        N  0.90425821  0.72407304  0.25310668    -0.02900
C184        C  0.89771406  0.71606750  0.25427453    -0.00300
C185        C  0.90206882  0.70718349  0.25048468    -0.23200
C186        C  0.91156560  0.70975490  0.24689905    -0.23400
C187        C  0.91275375  0.72011794  0.24863068    -0.00400
H188        H  0.89855414  0.69969264  0.25002299     0.13400
H189        H  0.91706196  0.70460803  0.24344883     0.13400
N190        N  0.90157849  0.79546789  0.28136729    -0.02900
C191        C  0.89358998  0.80148518  0.28438586    -0.00300
C192        C  0.89695239  0.80926703  0.29068617    -0.23200
C193        C  0.90732422  0.80820629  0.29150607    -0.23400
C194        C  0.91010716  0.79983177  0.28561056    -0.00400
H195        H  0.89235906  0.81524823  0.29411979     0.13400
H196        H  0.91233005  0.81311124  0.29593081     0.13400
N197        N  0.99417352  0.73131182  0.23338082    -0.02900
C198        C  0.00163578  0.72936676  0.22642413    -0.00300
C199        C  0.99770655  0.72392832  0.21824505    -0.23200
C200        C  0.98748147  0.72247063  0.22022016    -0.23400
C201        C  0.98548151  0.72708246  0.22955403    -0.00400
H202        H  0.00184654  0.72128019  0.21158211     0.13400
H203        H  0.98204562  0.71863152  0.21527393     0.13400
N204        N  0.99358810  0.78306572  0.28930320    -0.02900
C205        C  0.98615805  0.78951616  0.29267320    -0.00300
C206        C  0.99022707  0.79653757  0.29947205    -0.23200
C207        C  0.00049867  0.79432103  0.30034339    -0.23400
C208        C  0.00238116  0.78605625  0.29398362    -0.00400
H209        H  0.98614135  0.80254344  0.30345589     0.13400
H210        H  0.00600145  0.79830549  0.30509747     0.13400
N211        N  0.08633201  0.73361535  0.22061001    -0.02900
C212        C  0.09409758  0.72924802  0.21523280    -0.00300
C213        C  0.09037155  0.72196112  0.20854749    -0.23200
C214        C  0.07996061  0.72181632  0.20977162    -0.23400
C215        C  0.07759396  0.72899559  0.21722484    -0.00400
H216        H  0.09472327  0.71753559  0.20306178     0.13400
H217        H  0.07463909  0.71708151  0.20552606     0.13400
N218        N  0.08346863  0.76325166  0.29097185    -0.02900
C219        C  0.09117647  0.76513483  0.29769950    -0.00300
C220        C  0.08731355  0.76710434  0.30735135    -0.23200
C221        C  0.07688838  0.76650133  0.30657837    -0.23400
C222        C  0.07472882  0.76418000  0.29649150    -0.00400
H223        H  0.09163627  0.76873573  0.31424093     0.13400
H224        H  0.07143744  0.76792707  0.31263962     0.13400
O225        O  0.80313948  0.71638903  0.26496675    -0.73800
O226        O  0.80189646  0.68704280  0.26373646    -0.73900
O227        O  0.81726628  0.70132730  0.26468220    -0.73900
O228        O  0.78805731  0.70242289  0.26404995    -0.74000
O229        O  0.78831353  0.70300431  0.24698501    -0.73900
O230        O  0.81772931  0.70204557  0.24767278    -0.73900
O231        O  0.80225978  0.68772904  0.24671350    -0.73900
O232        O  0.80359269  0.71712199  0.24791719    -0.73900
Ni233      Ni  0.80262083  0.70171872  0.26494610     1.25400
Ni234      Ni  0.80302347  0.70245275  0.24670491     1.25400
C235        C  0.80348237  0.72159676  0.25666222     0.88300
C236        C  0.80140676  0.68254211  0.25501392     0.88300
C237        C  0.82236536  0.70207720  0.25635225     0.88300
C238        C  0.78336859  0.70303125  0.25545530     0.88500
O239        O  0.69996300  0.81811640  0.24462621    -0.73800
O240        O  0.67050951  0.81727200  0.24353722    -0.73900
O241        O  0.68523907  0.83249113  0.24353819    -0.73900
O242        O  0.68549881  0.80318345  0.24457899    -0.74000
O243        O  0.68439256  0.80387440  0.26160505    -0.73900
O244        O  0.68503763  0.83318212  0.26055931    -0.73900
O245        O  0.66998079  0.81839141  0.26052016    -0.73900
O246        O  0.69927757  0.81830997  0.26167378    -0.73900
Ni247      Ni  0.68528205  0.81779638  0.24345433     1.25400
Ni248      Ni  0.68461631  0.81851627  0.26168160     1.25400
C249        C  0.70447073  0.81820291  0.25336531     0.88300
C250        C  0.66540071  0.81707015  0.25192634     0.88300
C251        C  0.68578918  0.83767592  0.25187158     0.88300
C252        C  0.68481530  0.79871139  0.25327331     0.88500
O253        O  0.70247375  0.70390676  0.26910331    -0.73800
O254        O  0.67344976  0.70389314  0.27252839    -0.73900
O255        O  0.68857031  0.68926532  0.27295583    -0.73900
O256        O  0.68759542  0.71825118  0.26861756    -0.74000
O257        O  0.68533384  0.71574211  0.25189940    -0.73900
O258        O  0.68673679  0.68667233  0.25621210    -0.73900
O259        O  0.67129197  0.70109104  0.25582790    -0.73900
O260        O  0.70050460  0.70159221  0.25230855    -0.73900
Ni261      Ni  0.68804730  0.70387342  0.27139118     1.25400
Ni262      Ni  0.68585273  0.70113249  0.25346707     1.25400
C263        C  0.70630084  0.70286474  0.26014692     0.88300
C264        C  0.66757411  0.70302757  0.26470813     0.88300
C265        C  0.68839814  0.68317593  0.26524950     0.88300
C266        C  0.68633326  0.72180893  0.25955791     0.88500
O267        O  0.80253588  0.80455388  0.25293483    -0.73800
O268        O  0.80257690  0.83393257  0.25558451    -0.73900
O269        O  0.81721045  0.81862677  0.25691619    -0.73900
O270        O  0.78805374  0.81956743  0.25177618    -0.74000
O271        O  0.78530507  0.81818643  0.26853693    -0.73900
O272        O  0.81403136  0.81699333  0.27360234    -0.73900
O273        O  0.79976721  0.83231976  0.27229587    -0.73900
O274        O  0.79956279  0.80309681  0.26966252    -0.73900
Ni275      Ni  0.80273084  0.81927146  0.25369141     1.25400
Ni276      Ni  0.79958511  0.81764663  0.27159130     1.25400
C277        C  0.80117483  0.79898114  0.26089770     0.88300
C278        C  0.80073785  0.83799117  0.26434729     0.88300
C279        C  0.82031742  0.81697297  0.26611555     0.88300
C280        C  0.78186826  0.81903040  0.25938884     0.88500
N281        N  0.58448761  0.72159527  0.26951765    -0.02900
C282        C  0.59234539  0.71546780  0.27258411    -0.00300
C283        C  0.58867469  0.70624747  0.27620090    -0.23200
C284        C  0.57826233  0.70664829  0.27541230    -0.23400
C285        C  0.57581402  0.71607409  0.27122540    -0.00400
H286        H  0.59313162  0.69979727  0.27889606     0.13400
H287        H  0.57301761  0.70060178  0.27752296     0.13400
N288        N  0.58237905  0.79600629  0.24935286    -0.02900
C289        C  0.58917621  0.80397498  0.24955695    -0.00300
C290        C  0.58430060  0.81297329  0.24672400    -0.23200
C291        C  0.57429976  0.81062275  0.24481426    -0.23400
C292        C  0.57329161  0.80025713  0.24644988    -0.00400
H293        H  0.58772629  0.82045898  0.24580734     0.13400
H294        H  0.56838472  0.81588861  0.24236248     0.13400
N295        N  0.49151227  0.72276457  0.26903918    -0.02900
C296        C  0.48333759  0.71751099  0.27270430    -0.00300
C297        C  0.48654312  0.70819968  0.27665969    -0.23200
C298        C  0.49698040  0.70774678  0.27542270    -0.23400
C299        C  0.49983294  0.71677784  0.27076689    -0.00400
H300        H  0.48182423  0.70244174  0.28027239     0.13400
H301        H  0.50199157  0.70164827  0.27795211     0.13400
N302        N  0.49185420  0.78936942  0.23129179    -0.02900
C303        C  0.48385823  0.79429902  0.22681863    -0.00300
C304        C  0.48686769  0.80387232  0.22348913    -0.23200
C305        C  0.49706667  0.80486798  0.22599809    -0.23400
C306        C  0.49993266  0.79586272  0.23078746    -0.00400
H307        H  0.48210519  0.80958745  0.21983234     0.13400
H308        H  0.50185352  0.81146457  0.22454536     0.13400
N309        N  0.40280670  0.74143020  0.28433877    -0.02900
C310        C  0.39608042  0.74194994  0.29220403    -0.00300
C311        C  0.40008153  0.73719414  0.30077529    -0.23200
C312        C  0.40959970  0.73363834  0.29810003    -0.23400
C313        C  0.41109171  0.73635967  0.28799062    -0.00400
H314        H  0.39638272  0.73624409  0.30811829     0.13400
H315        H  0.41490375  0.72958457  0.30301667     0.13400
N316        N  0.40043785  0.77837646  0.21730962    -0.02900
C317        C  0.39260502  0.78105681  0.21094551    -0.00300
C318        C  0.39608394  0.78744079  0.20328040    -0.23200
C319        C  0.40634094  0.78870598  0.20484482    -0.23400
C320        C  0.40890454  0.78308076  0.21345124    -0.00400
H321        H  0.39165543  0.79063976  0.19703943     0.13400
H322        H  0.41144419  0.79316603  0.20009965     0.13400
O323        O  0.30182120  0.75921258  0.29236114    -0.73800
O324        O  0.30173432  0.75866236  0.32150392    -0.73900
O325        O  0.31656037  0.75896010  0.30678946    -0.73900
O326        O  0.28717384  0.75865106  0.30679053    -0.74000
O327        O  0.28746636  0.74157956  0.30645676    -0.73900
O328        O  0.31671078  0.74191328  0.30667811    -0.73900
O329        O  0.30180488  0.74162052  0.32135155    -0.73900
O330        O  0.30229185  0.74213106  0.29191689    -0.73900
Ni331      Ni  0.30184895  0.75946985  0.30691556     1.25400
Ni332      Ni  0.30209868  0.74119674  0.30661785     1.25400
C333        C  0.30206995  0.75081591  0.28733411     0.88300
C334        C  0.30135479  0.75012382  0.32628161     0.88300
C335        C  0.32148412  0.75046673  0.30628934     0.88300
C336        C  0.28248595  0.75002327  0.30658228     0.88500
O337        O  0.20125172  0.73847378  0.19270552    -0.73800
O338        O  0.17203468  0.73562187  0.19347989    -0.73900
O339        O  0.18663098  0.73650938  0.17834223    -0.73900
O340        O  0.18684451  0.73755930  0.20766169    -0.74000
O341        O  0.18561875  0.75459335  0.20702427    -0.73900
O342        O  0.18467168  0.75342549  0.17772274    -0.73900
O343        O  0.17042960  0.75262074  0.19330349    -0.73900
O344        O  0.19952629  0.75542955  0.19183619    -0.73900
Ni345      Ni  0.18670885  0.73642744  0.19302585     1.25400
Ni346      Ni  0.18494618  0.75460842  0.19239474     1.25400
C347        C  0.20520579  0.74743882  0.19211227     0.88300
C348        C  0.16648557  0.74368772  0.19425482     0.88300
C349        C  0.18622665  0.74484565  0.17318232     0.88300
C350        C  0.18635557  0.74627090  0.21215463     0.88500
O351        O  0.18521031  0.74493470  0.29479008    -0.73800
O352        O  0.18540474  0.74891419  0.32392153    -0.73900
O353        O  0.17058517  0.74846043  0.30895698    -0.73900
O354        O  0.19979518  0.74532562  0.30955426    -0.74000
O355        O  0.20153533  0.76217699  0.30747096    -0.73900
O356        O  0.17248083  0.76525641  0.30668281    -0.73900
O357        O  0.18710504  0.76572241  0.32167211    -0.73900
O358        O  0.18699356  0.76177736  0.29263583    -0.73900
Ni359      Ni  0.18514579  0.74630869  0.30942569     1.25400
Ni360      Ni  0.18706747  0.76432308  0.30706450     1.25400
C361        C  0.18602308  0.75274962  0.28891536     0.88300
C362        C  0.18675664  0.75792599  0.32761254     0.88300
C363        C  0.16673221  0.75733526  0.30724832     0.88300
C364        C  0.20547581  0.75326727  0.30864132     0.88500
O365        O  0.28506515  0.76660720  0.19205127    -0.73800
O366        O  0.31377291  0.77146576  0.19322552    -0.73900
O367        O  0.29938359  0.77074166  0.17784499    -0.73900
O368        O  0.29938823  0.76717235  0.20706843    -0.74000
O369        O  0.30227899  0.75045837  0.20500467    -0.73900
O370        O  0.30220935  0.75402984  0.17594818    -0.73900
O371        O  0.31684642  0.75478694  0.19116700    -0.73900
O372        O  0.28784143  0.74984483  0.19023245    -0.73900
Ni373      Ni  0.29932655  0.76959577  0.19256243     1.25400
Ni374      Ni  0.30243373  0.75169499  0.19044404     1.25400
C375        C  0.28169935  0.75746131  0.19107870     0.88300
C376        C  0.31997856  0.76388394  0.19318009     0.88300
C377        C  0.30034819  0.76285134  0.17205494     0.88300
C378        C  0.30086009  0.75821432  0.21082364     0.88500
N379        N  0.28135962  0.74250449  0.40837623    -0.02900
C380        C  0.28876926  0.74238170  0.40109537    -0.00300
C381        C  0.29749299  0.73765723  0.40478354    -0.23200
C382        C  0.29546088  0.73478573  0.41465902    -0.23400
C383        C  0.28557772  0.73788908  0.41670608    -0.00400
H384        H  0.30459930  0.73647361  0.40071589     0.13400
H385        H  0.30075147  0.73116712  0.41991990     0.13400
N386        N  0.21024496  0.77067705  0.40873851    -0.02900
C387        C  0.20246647  0.77171495  0.40187547    -0.00300
C388        C  0.19404032  0.77607135  0.40655763    -0.23200
C389        C  0.19662496  0.77768850  0.41661272    -0.23400
C390        C  0.20653345  0.77425223  0.41777686    -0.00400
H391        H  0.18668482  0.77763548  0.40307331     0.13400
H392        H  0.19165726  0.78060202  0.42255933     0.13400
N393        N  0.27655894  0.73123930  0.49942282    -0.02900
C394        C  0.28283511  0.72940745  0.49137097    -0.00300
C395        C  0.29097727  0.72335821  0.49438739    -0.23200
C396        C  0.28965686  0.72139697  0.50465359    -0.23400
C397        C  0.28080553  0.72639494  0.50759978    -0.00400
H398        H  0.29707066  0.72046280  0.48959699     0.13400
H399        H  0.29465267  0.71686259  0.50947271     0.13400
N400        N  0.21443037  0.77595320  0.50074645    -0.02900
C401        C  0.20815017  0.77752955  0.49260980    -0.00300
C402        C  0.19979012  0.78329339  0.49551720    -0.23200
C403        C  0.20102076  0.78540822  0.50576927    -0.23400
C404        C  0.21012672  0.78089778  0.50884184    -0.00400
H405        H  0.19363102  0.78595771  0.49064952     0.13400
H406        H  0.19582106  0.78982959  0.51045486     0.13400
N407        N  0.25785320  0.71908508  0.58899461    -0.02900
C408        C  0.25711359  0.71128559  0.59592161    -0.00300
C409        C  0.26105229  0.70234200  0.59181155    -0.23200
C410        C  0.26440048  0.70461054  0.58215565    -0.23400
C411        C  0.26235108  0.71484482  0.58059274    -0.00400
H412        H  0.26169009  0.69498327  0.59557302     0.13400
H413        H  0.26791129  0.69935074  0.57680070     0.13400
N414        N  0.23741080  0.79332045  0.58856542    -0.02900
C415        C  0.23923558  0.80143024  0.59489649    -0.00300
C416        C  0.23568311  0.81038316  0.59049950    -0.23200
C417        C  0.23144486  0.80776721  0.58124069    -0.23400
C418        C  0.23258220  0.79729894  0.58021952    -0.00400
H419        H  0.23578999  0.81796079  0.59386994     0.13400
H420        H  0.22790551  0.81294618  0.57581923     0.13400
N421        N  0.23546553  0.71954804  0.90977534    -0.02900
C422        C  0.23754060  0.71159966  0.90326474    -0.00300
C423        C  0.23553145  0.70237114  0.90803691    -0.23200
C424        C  0.23201670  0.70459230  0.91764942    -0.23400
C425        C  0.23203278  0.71512427  0.91858797    -0.00400
H426        H  0.23623951  0.69479532  0.90473830     0.13400
H427        H  0.22963482  0.69909668  0.92336640     0.13400
N428        N  0.25349452  0.79425201  0.90836240    -0.02900
C429        C  0.25207131  0.80150500  0.90100360    -0.00300
C430        C  0.25496714  0.81100989  0.90466257    -0.23200
C431        C  0.25842500  0.80958950  0.91448917    -0.23400
C432        C  0.25753472  0.79925004  0.91658767    -0.00400
H433        H  0.25489728  0.81817228  0.90049457     0.13400
H434        H  0.26129038  0.81548895  0.91956376     0.13400
N435        N  0.21249308  0.73431881  0.99832255    -0.02900
C436        C  0.20645212  0.73196358  0.00642635    -0.00300
C437        C  0.19898419  0.72505985  0.00349695    -0.23200
C438        C  0.20052773  0.72304054  0.99326177    -0.23400
C439        C  0.20881464  0.72886741  0.99024145    -0.00400
H440        H  0.19329365  0.72155865  0.00837235     0.13400
H441        H  0.19616005  0.71779099  0.98855655     0.13400
N442        N  0.27098752  0.78384938  0.99845276    -0.02900
C443        C  0.27527679  0.78885990  0.99040588    -0.00300
C444        C  0.28387449  0.79414052  0.99365687    -0.23200
C445        C  0.28491231  0.79232760  0.00397962    -0.23400
C446        C  0.27688530  0.78605125  0.00676392    -0.00400
H447        H  0.28895493  0.79870480  0.98898855     0.13400
H448        H  0.29084668  0.79532305  0.00893612     0.13400
N449        N  0.20675695  0.74045918  0.09045641    -0.02900
C450        C  0.19954551  0.73887714  0.09781431    -0.00300
C451        C  0.19139007  0.73343072  0.09380828    -0.23200
C452        C  0.19353138  0.73163215  0.08370223    -0.23400
C453        C  0.20293070  0.73602251  0.08181508    -0.00400
H454        H  0.18454745  0.73108633  0.09781923     0.13400
H455        H  0.18861495  0.72781234  0.07822276     0.13400
N456        N  0.27764751  0.76941720  0.08991614    -0.02900
C457        C  0.28576734  0.76965585  0.09648624    -0.00300
C458        C  0.29427148  0.77361183  0.09160691    -0.23200
C459        C  0.29140205  0.77580768  0.08175600    -0.23400
C460        C  0.28123341  0.77316493  0.08089836    -0.00400
H461        H  0.30178442  0.77480223  0.09489414     0.13400
H462        H  0.29626628  0.77878812  0.07576498     0.13400
N463        N  0.24670934  0.91954896  0.70670528    -0.02900
C464        C  0.24642944  0.91247355  0.69905851    -0.00300
C465        C  0.24687482  0.91716264  0.68959124    -0.23200
C466        C  0.24737832  0.92746048  0.69136996    -0.23400
C467        C  0.24724167  0.92874415  0.70186550    -0.00400
H468        H  0.24674125  0.91346890  0.68216821     0.13400
H469        H  0.24746463  0.93342644  0.68561929     0.13400
N470        N  0.24705001  0.91786368  0.78311344    -0.02900
C471        C  0.24819563  0.91096759  0.79091968    -0.00300
C472        C  0.24705226  0.91589642  0.80022911    -0.23200
C473        C  0.24514418  0.92601121  0.79819161    -0.23400
C474        C  0.24524509  0.92711409  0.78767508    -0.00400
H475        H  0.24750678  0.91246119  0.80775770     0.13400
H476        H  0.24411951  0.93201566  0.80381892     0.13400
N477        N  0.25389708  0.01065782  0.78057752    -0.02900
C478        C  0.25723583  0.01879122  0.78613626    -0.00300
C479        C  0.25998981  0.01556137  0.79584342    -0.23200
C480        C  0.25834108  0.00511592  0.79617446    -0.23400
C481        C  0.25463785  0.00225095  0.78665022    -0.00400
H482        H  0.26323739  0.02021903  0.80188985     0.13400
H483        H  0.25996334  0.00010898  0.80257644     0.13400
N484        N  0.23048932  0.01041236  0.70804582    -0.02900
C485        C  0.22974035  0.00246201  0.70137640    -0.00300
C486        C  0.22586794  0.00590415  0.69212920    -0.23200
C487        C  0.22435911  0.01632000  0.69314341    -0.23400
C488        C  0.22726464  0.01890318  0.70301119    -0.00400
H489        H  0.22438877  0.00136312  0.68534820     0.13400
H490        H  0.22124761  0.02139542  0.68737769     0.13400
N491        N  0.20712484  0.09695632  0.73038627    -0.02900
C492        C  0.19905322  0.10350536  0.73116998    -0.00300
C493        C  0.19063666  0.09938845  0.72622758    -0.23200
C494        C  0.19358923  0.09006513  0.72233785    -0.23400
C495        C  0.20376099  0.08870001  0.72495359    -0.00400
H496        H  0.18320470  0.10291645  0.72527077     0.13400
H497        H  0.18877987  0.08482330  0.71808006     0.13400
N498        N  0.27589131  0.09901341  0.76381306    -0.02900
C499        C  0.28297014  0.10630206  0.76611914    -0.00300
C500        C  0.29071749  0.10210804  0.77200641    -0.23200
C501        C  0.28841399  0.09192212  0.77330513    -0.23400
C502        C  0.27930219  0.09022034  0.76823263    -0.00400
H503        H  0.29743457  0.10601411  0.77488650     0.13400
H504        H  0.29283468  0.08637429  0.77759506     0.13400
O505        O  0.25528993  0.81727223  0.70432017    -0.73800
O506        O  0.25620670  0.81636643  0.67494522    -0.73900
O507        O  0.25560459  0.83153534  0.68936461    -0.73900
O508        O  0.25596671  0.80224219  0.69001028    -0.74000
O509        O  0.23896099  0.80194442  0.68902845    -0.73900
O510        O  0.23857408  0.83125714  0.68934701    -0.73900
O511        O  0.23919250  0.81656802  0.67446607    -0.73900
O512        O  0.23827058  0.81644995  0.70385271    -0.73900
Ni513      Ni  0.25637008  0.81688619  0.68966103     1.25400
Ni514      Ni  0.23814257  0.81658195  0.68913040     1.25400
C515        C  0.24665378  0.81688895  0.70893923     0.88300
C516        C  0.24782089  0.81600564  0.66984660     0.88300
C517        C  0.24701725  0.83624380  0.68962263     0.88300
C518        C  0.24755202  0.79724643  0.68955899     0.88500
O519        O  0.23796631  0.71361437  0.80821170    -0.73800
O520        O  0.23698302  0.68434924  0.80643192    -0.73900
O521        O  0.23705927  0.69837936  0.82213787    -0.73900
O522        O  0.23800281  0.69994154  0.79273611    -0.74000
O523        O  0.25500432  0.69895806  0.79328523    -0.73900
O524        O  0.25405787  0.69802566  0.82265448    -0.73900
O525        O  0.25395792  0.68360602  0.80719554    -0.73900
O526        O  0.25498817  0.71308850  0.80842623    -0.73900
Ni527      Ni  0.23690713  0.69903549  0.80738914     1.25400
Ni528      Ni  0.25510577  0.69834629  0.80795115     1.25400
C529        C  0.24660630  0.71820986  0.80844932     0.88300
C530        C  0.24527961  0.67910715  0.80619759     0.88300
C531        C  0.24543358  0.69850090  0.82729330     0.88300
C532        C  0.24667829  0.69988702  0.78817733     0.88500
O533        O  0.24080181  0.70036262  0.70599179    -0.73800
O534        O  0.24106717  0.69951948  0.67664663    -0.73900
O535        O  0.24197250  0.68511168  0.69209303    -0.73900
O536        O  0.24003320  0.71453276  0.69089445    -0.74000
O537        O  0.25704260  0.71552181  0.69098696    -0.73900
O538        O  0.25897257  0.68633495  0.69204911    -0.73900
O539        O  0.25804337  0.70063734  0.67681564    -0.73900
O540        O  0.25779525  0.70148442  0.70615000    -0.73900
Ni541      Ni  0.24035601  0.69979729  0.69135890     1.25400
Ni542      Ni  0.25855434  0.70098959  0.69148645     1.25400
C543        C  0.24924384  0.70119003  0.71091919     0.88300
C544        C  0.24956842  0.70042023  0.67185549     0.88300
C545        C  0.25083922  0.68091513  0.69266735     0.88300
C546        C  0.24826905  0.71986766  0.69077930     0.88500
O547        O  0.25638018  0.80016548  0.80550400    -0.73800
O548        O  0.25749506  0.82943959  0.80641050    -0.73900
O549        O  0.25659730  0.81384946  0.82078879    -0.73900
O550        O  0.25698714  0.81537803  0.79129588    -0.74000
O551        O  0.23997820  0.81613881  0.79118388    -0.73900
O552        O  0.23959551  0.81443066  0.82044848    -0.73900
O553        O  0.24051113  0.83022617  0.80621723    -0.73900
O554        O  0.23935106  0.80067644  0.80513784    -0.73900
Ni555      Ni  0.25746327  0.81473529  0.80604137     1.25400
Ni556      Ni  0.23925844  0.81544080  0.80578022     1.25400
C557        C  0.24774264  0.79557143  0.80539761     0.88300
C558        C  0.24925346  0.83471972  0.80578468     0.88300
C559        C  0.24796180  0.81315028  0.82541653     0.88300
C560        C  0.24849619  0.81603323  0.78637753     0.88500
N561        N  0.26514321  0.60011617  0.71692240    -0.02900
C562        C  0.26745434  0.60766584  0.71011219    -0.00300
C563        C  0.27353158  0.60387451  0.70237289    -0.23200
C564        C  0.27496363  0.59366114  0.70435990    -0.23400
C565        C  0.26974419  0.59144668  0.71330474    -0.00400
H566        H  0.27640327  0.60805472  0.69583032     0.13400
H567        H  0.27929257  0.58836127  0.69969085     0.13400
N568        N  0.23220977  0.59746776  0.78560289    -0.02900
C569        C  0.23310171  0.60385771  0.79380152    -0.00300
C570        C  0.22841362  0.59950059  0.80223342    -0.23200
C571        C  0.22462589  0.59017282  0.79916367    -0.23400
C572        C  0.22710305  0.58904783  0.78894752    -0.00400
H573        H  0.22757970  0.60285646  0.80976562     0.13400
H574        H  0.22049879  0.58477118  0.80388378     0.13400
N575        N  0.21174329  0.50949818  0.76850696    -0.02900
C576        C  0.20581630  0.50116692  0.77016307    -0.00300
C577        C  0.19661587  0.50415039  0.77446970    -0.23200
C578        C  0.19695344  0.51468243  0.77543988    -0.23400
C579        C  0.20636284  0.51773805  0.77175260    -0.00400
H580        H  0.19028771  0.49923869  0.77653398     0.13400
H581        H  0.19106039  0.51954612  0.77862983     0.13400
N582        N  0.27921820  0.50920067  0.73352713    -0.02900
C583        C  0.28515472  0.50091233  0.73142215    -0.00300
C584        C  0.29361831  0.50395698  0.72585544    -0.23200
C585        C  0.29286322  0.51442283  0.72458035    -0.23400
C586        C  0.28389263  0.51746087  0.72927792    -0.00400
H587        H  0.29965518  0.49908374  0.72296003     0.13400
H588        H  0.29813432  0.51924640  0.72041136     0.13400
N589        N  0.28216076  0.41681982  0.74224394    -0.02900
C590        C  0.28921502  0.40944929  0.74007778    -0.00300
C591        C  0.29884083  0.41377350  0.73932161    -0.23200
C592        C  0.29770782  0.42409085  0.74084444    -0.23400
C593        C  0.28742838  0.42581592  0.74250860    -0.00400
H594        H  0.30596903  0.40982994  0.73785039     0.13400
H595        H  0.30370842  0.42978438  0.74048033     0.13400
N596        N  0.20702502  0.41822706  0.75523382    -0.02900
C597        C  0.19984238  0.41090604  0.75704449    -0.00300
C598        C  0.19032295  0.41539286  0.75808878    -0.23200
C599        C  0.19166452  0.42576333  0.75700771    -0.23400
C600        C  0.20197013  0.42735136  0.75530150    -0.00400
H601        H  0.18315509  0.41152572  0.75954095     0.13400
H602        H  0.18579166  0.43155837  0.75775257     0.13400
O603        O  0.28885780  0.31436803  0.75338019    -0.73800
O604        O  0.31796491  0.31490540  0.75052159    -0.73900
O605        O  0.30269858  0.32942845  0.75094968    -0.73900
O606        O  0.30387978  0.30004907  0.75280245    -0.74000
O607        O  0.30227765  0.29896533  0.73585317    -0.73900
O608        O  0.30094833  0.32818573  0.73403819    -0.73900
O609        O  0.31637499  0.31389685  0.73355795    -0.73900
O610        O  0.28712976  0.31305836  0.73645206    -0.73900
Ni611      Ni  0.30345282  0.31477132  0.75250556     1.25400
Ni612      Ni  0.30166745  0.31353039  0.73436870     1.25400
C613        C  0.28317672  0.31353455  0.74542098     0.88300
C614        C  0.32198462  0.31395487  0.74163626     0.88300
C615        C  0.30107481  0.33362886  0.74221143     0.88300
C616        C  0.30319917  0.29465133  0.74461414     0.88500
O617        O  0.18771950  0.21381214  0.73780026    -0.73800
O618        O  0.18770225  0.18450087  0.73584753    -0.73900
O619        O  0.17296827  0.19942158  0.73722800    -0.73900
O620        O  0.20226033  0.19907962  0.73647442    -0.74000
O621        O  0.20267339  0.19763401  0.75346844    -0.73900
O622        O  0.17343867  0.19859765  0.75424846    -0.73900
O623        O  0.18787772  0.18330802  0.75284118    -0.73900
O624        O  0.18848697  0.21274441  0.75480306    -0.73900
Ni625      Ni  0.18761279  0.19921290  0.73623980     1.25400
Ni626      Ni  0.18809854  0.19800282  0.75444646     1.25400
C627        C  0.18812125  0.21814213  0.74660067     0.88300
C628        C  0.18822018  0.17903186  0.74398993     0.88300
C629        C  0.16837044  0.19955512  0.74589042     0.88300
C630        C  0.20729945  0.19824283  0.74485676     0.88500
O631        O  0.20112130  0.31550251  0.74509093    -0.73800
O632        O  0.17187394  0.31555990  0.74594152    -0.73900
O633        O  0.18687073  0.33037379  0.74667584    -0.73900
O634        O  0.18644138  0.30100284  0.74444914    -0.74000
O635        O  0.18670619  0.29972665  0.76145892    -0.73900
O636        O  0.18771034  0.32909502  0.76365201    -0.73900
O637        O  0.17230910  0.31446071  0.76292915    -0.73900
O638        O  0.20178605  0.31393037  0.76206183    -0.73900
Ni639      Ni  0.18651008  0.31571032  0.74495958     1.25400
Ni640      Ni  0.18709759  0.31432412  0.76314447     1.25400
C641        C  0.20630064  0.31450348  0.75336777     0.88300
C642        C  0.16723016  0.31437638  0.75448750     0.88300
C643        C  0.18793420  0.33458441  0.75550013     0.88300
C644        C  0.18657119  0.29551693  0.75259043     0.88500
O645        O  0.28949269  0.19781059  0.73895505    -0.73800
O646        O  0.31872668  0.19736924  0.74002714    -0.73900
O647        O  0.30346421  0.18278448  0.73998143    -0.73900
O648        O  0.30436817  0.21221567  0.73911702    -0.74000
O649        O  0.30341656  0.21272210  0.75615459    -0.73900
O650        O  0.30338385  0.18339901  0.75705770    -0.73900
O651        O  0.31817393  0.19819404  0.75705760    -0.73900
O652        O  0.28889636  0.19809215  0.75600817    -0.73900
Ni653      Ni  0.30409272  0.19749102  0.73891238     1.25400
Ni654      Ni  0.30349829  0.19808759  0.75717424     1.25400
C655        C  0.28436836  0.19803718  0.74729252     0.88300
C656        C  0.32328825  0.19815659  0.74869225     0.88300
C657        C  0.30278052  0.17830616  0.74869239     0.88300
C658        C  0.30377773  0.21731118  0.74750147     0.88500
N659        N  0.70708463  0.24273338  0.91233615    -0.02900
C660        C  0.69959709  0.24242485  0.90509671    -0.00300
C661        C  0.69050692  0.23922069  0.90939477    -0.23200
C662        C  0.69240767  0.23759613  0.91961498    -0.23400
C663        C  0.70260046  0.23992080  0.92128093    -0.00400
H664        H  0.68322837  0.23833182  0.90553167     0.13400
H665        H  0.68689157  0.23515324  0.92527367     0.13400
N666        N  0.77747979  0.27252520  0.91220496    -0.02900
C667        C  0.78366323  0.27601989  0.90459120    -0.00300
C668        C  0.79165962  0.28161352  0.90864920    -0.23200
C669        C  0.79044786  0.28156498  0.91908279    -0.23400
C670        C  0.78172557  0.27595934  0.92111901    -0.00400
H671        H  0.79797355  0.28495622  0.90448217     0.13400
H672        H  0.79545131  0.28516702  0.92463180     0.13400
N673        N  0.72029865  0.22586742  0.00247251    -0.02900
C674        C  0.71731802  0.22058917  0.01090436    -0.00300
C675        C  0.71063418  0.21288032  0.00809479    -0.23200
C676        C  0.70955607  0.21341902  0.99758797    -0.23400
C677        C  0.71556258  0.22150042  0.99428083    -0.00400
H678        H  0.70695423  0.20744037  0.01312940     0.13400
H679        H  0.70465211  0.20861798  0.99294188     0.13400
N680        N  0.76953052  0.28358565  0.00448030    -0.02900
C681        C  0.77368313  0.28792622  0.01296680    -0.00300
C682        C  0.78165331  0.29429335  0.01021100    -0.23200
C683        C  0.78239641  0.29381957  0.99967237    -0.23400
C684        C  0.77492968  0.28708559  0.99632133    -0.00400
H685        H  0.78634180  0.29887137  0.01529182     0.13400
H686        H  0.78793557  0.29778741  0.99498500     0.13400
N687        N  0.73512492  0.22089176  0.09414907    -0.02900
C688        C  0.73358134  0.21376119  0.10160756    -0.00300
C689        C  0.73103174  0.20442613  0.09732556    -0.23200
C690        C  0.73109797  0.20572161  0.08693167    -0.23400
C691        C  0.73360667  0.21584160  0.08511994    -0.00400
H692        H  0.72941720  0.19737257  0.10135948     0.13400
H693        H  0.72932434  0.19992513  0.08126776     0.13400
N694        N  0.74985509  0.29611129  0.09414125    -0.02900
C695        C  0.74756844  0.30398685  0.10057017    -0.00300
C696        C  0.74922743  0.31324598  0.09571252    -0.23200
C697        C  0.75256603  0.31102951  0.08601052    -0.23400
C698        C  0.75285635  0.30048023  0.08519901    -0.00400
H699        H  0.74840024  0.32082063  0.09898643     0.13400
H700        H  0.75461493  0.31652975  0.08017054     0.13400
N701        N  0.40397512  0.29172355  0.73407198    -0.02900
C702        C  0.39680296  0.29859497  0.73088024    -0.00300
C703        C  0.40132941  0.30656982  0.72564270    -0.23200
C704        C  0.41163540  0.30462741  0.72555778    -0.23400
C705        C  0.41307928  0.29554634  0.73077336    -0.00400
H706        H  0.39753048  0.31316424  0.72235322     0.13400
H707        H  0.41746849  0.30927720  0.72198045     0.13400
N708        N  0.40426318  0.21989311  0.75950921    -0.02900
C709        C  0.39793976  0.21183173  0.75785059    -0.00300
C710        C  0.40252318  0.20282231  0.76097376    -0.23200
C711        C  0.41202707  0.20540366  0.76464084    -0.23400
C712        C  0.41294143  0.21590092  0.76359069    -0.00400
H713        H  0.39921243  0.19522815  0.76081890     0.13400
H714        H  0.41770825  0.20018095  0.76766922     0.13400
N715        N  0.49530912  0.28260829  0.72076298    -0.02900
C716        C  0.48692019  0.28750011  0.71710546    -0.00300
C717        C  0.48979683  0.29467234  0.70988856    -0.23200
C718        C  0.50030191  0.29414816  0.70913334    -0.23400
C719        C  0.50354680  0.28675772  0.71602398    -0.00400
H720        H  0.48483049  0.29994843  0.70586112     0.13400
H721        H  0.50504930  0.29882767  0.70423736     0.13400
N722        N  0.49322820  0.23365880  0.77930169    -0.02900
C723        C  0.48480028  0.22894102  0.78303040    -0.00300
C724        C  0.48755494  0.22164971  0.79019165    -0.23200
C725        C  0.49807717  0.22185752  0.79084295    -0.23400
C726        C  0.50135432  0.22933783  0.78412137    -0.00400
H727        H  0.48248785  0.21651511  0.79424266     0.13400
H728        H  0.50281655  0.21708072  0.79568501     0.13400
N729        N  0.58727945  0.27368126  0.71757413    -0.02900
C730        C  0.59529602  0.27640605  0.71151875    -0.00300
C731        C  0.59188203  0.28177631  0.70307034    -0.23200
C732        C  0.58144338  0.28231985  0.70382128    -0.23400
C733        C  0.57878697  0.27731130  0.71274297    -0.00400
H734        H  0.59648024  0.28462013  0.69680704     0.13400
H735        H  0.57630228  0.28586208  0.69836338     0.13400
N736        N  0.58488190  0.24054449  0.78667852    -0.02900
C737        C  0.59285975  0.23781465  0.79278747    -0.00300
C738        C  0.58932197  0.23273208  0.80134138    -0.23200
C739        C  0.57885552  0.23235497  0.80051542    -0.23400
C740        C  0.57625541  0.23733442  0.79151671    -0.00400
H741        H  0.59383688  0.23009308  0.80777851     0.13400
H742        H  0.57368482  0.22903655  0.80605277     0.13400
N743        N  0.90411244  0.23943537  0.71819498    -0.02900
C744        C  0.89780159  0.24078149  0.70999655    -0.00300
C745        C  0.90210859  0.23645915  0.70134608    -0.23200
C746        C  0.91136643  0.23243929  0.70425292    -0.23400
C747        C  0.91248606  0.23443306  0.71458969    -0.00400
H748        H  0.89881048  0.23611461  0.69374623     0.13400
H749        H  0.91681478  0.22864812  0.69930328     0.13400
N750        N  0.90347668  0.27083644  0.78791757    -0.02900
C751        C  0.89593199  0.27396218  0.79438457    -0.00300
C752        C  0.90004389  0.27914561  0.80264231    -0.23200
C753        C  0.91044846  0.27922251  0.80130417    -0.23400
C754        C  0.91239558  0.27410680  0.79224769    -0.00400
H755        H  0.89590565  0.28239623  0.80903694     0.13400
H756        H  0.91600203  0.28284121  0.80628636     0.13400
N757        N  0.99317911  0.22015472  0.73159240    -0.02900
C758        C  0.00129230  0.21456410  0.72837928    -0.00300
C759        C  0.99795364  0.20606803  0.72299696    -0.23200
C760        C  0.98740410  0.20644022  0.72299177    -0.23400
C761        C  0.98470302  0.21520451  0.72828416    -0.00400
H762        H  0.00267247  0.20028099  0.71941033     0.13400
H763        H  0.98228689  0.20111097  0.71923265     0.13400
N764        N  0.99263344  0.28723781  0.76813796    -0.02900
C765        C  0.00069823  0.29370302  0.76895387    -0.00300
C766        C  0.99777811  0.30246685  0.77411098    -0.23200
C767        C  0.98760384  0.30123910  0.77662523    -0.23400
C768        C  0.98458176  0.29179129  0.77284808    -0.00400
H769        H  0.00265412  0.30878910  0.77633022     0.13400
H770        H  0.98300823  0.30651427  0.78105859     0.13400
N771        N  0.08486719  0.21594436  0.74212950    -0.02900
C772        C  0.09204497  0.20850017  0.74356784    -0.00300
C773        C  0.08782149  0.19891184  0.74216223    -0.23200
C774        C  0.07777425  0.20039431  0.73966979    -0.23400
C775        C  0.07612074  0.21085913  0.73959493    -0.00400
H776        H  0.09172717  0.19161253  0.74261738     0.13400
H777        H  0.07224707  0.19445044  0.73800011     0.13400
N778        N  0.08469280  0.29099294  0.75927238    -0.02900
C779        C  0.09210148  0.29834559  0.75970126    -0.00300
C780        C  0.08825623  0.30726351  0.76389700    -0.23200
C781        C  0.07821775  0.30545115  0.76620278    -0.23400
C782        C  0.07617902  0.29548264  0.76330931    -0.00400
H783        H  0.09239074  0.31431816  0.76525502     0.13400
H784        H  0.07290549  0.31087847  0.76951141     0.13400
O785        O  0.70018577  0.26328172  0.81128721    -0.73800
O786        O  0.67092819  0.26069407  0.80997891    -0.73900
O787        O  0.68557342  0.26043831  0.82537601    -0.73900
O788        O  0.68594764  0.26364172  0.79617858    -0.74000
O789        O  0.68741515  0.24675282  0.79428128    -0.73900
O790        O  0.68726566  0.24357162  0.82359401    -0.73900
O791        O  0.67254765  0.24380323  0.80834147    -0.73900
O792        O  0.70169493  0.24639042  0.80921104    -0.73900
Ni793      Ni  0.68553966  0.26260018  0.81081138     1.25400
Ni794      Ni  0.68722031  0.24452171  0.80883636     1.25400
C795        C  0.70573544  0.25524039  0.81036993     0.88300
C796        C  0.66692245  0.25185568  0.80839242     0.88300
C797        C  0.68707180  0.25156800  0.82932790     0.88300
C798        C  0.68687313  0.25576416  0.79039873     0.88500
O799        O  0.80280914  0.24973441  0.70986860    -0.73800
O800        O  0.80379729  0.24834597  0.68061520    -0.73900
O801        O  0.81796736  0.24761079  0.69606256    -0.73900
O802        O  0.78894349  0.25037485  0.69466258    -0.74000
O803        O  0.79053897  0.26733768  0.69356047    -0.73900
O804        O  0.81976006  0.26454330  0.69556014    -0.73900
O805        O  0.80579294  0.26527542  0.67979046    -0.73900
O806        O  0.80427307  0.26670043  0.70907329    -0.73900
Ni807      Ni  0.80337890  0.24842014  0.69528563     1.25400
Ni808      Ni  0.80519881  0.26657334  0.69443439     1.25400
C809        C  0.80317779  0.25848196  0.71431172     0.88300
C810        C  0.80446843  0.25661048  0.67536419     0.88300
C811        C  0.82366767  0.25557157  0.69653071     0.88300
C812        C  0.78493496  0.25928938  0.69396006     0.88500
O813        O  0.68900281  0.27099154  0.70852841    -0.73800
O814        O  0.68867202  0.27128725  0.67904230    -0.73900
O815        O  0.67408186  0.27170262  0.69415511    -0.73900
O816        O  0.70329858  0.27069092  0.69353983    -0.74000
O817        O  0.70272687  0.25364681  0.69307581    -0.73900
O818        O  0.67337752  0.25464903  0.69427778    -0.73900
O819        O  0.68780815  0.25427298  0.67888526    -0.73900
O820        O  0.68851345  0.25393409  0.70820272    -0.73900
Ni821      Ni  0.68873772  0.27177306  0.69379438     1.25400
Ni822      Ni  0.68804923  0.25352381  0.69356761     1.25400
C823        C  0.68880916  0.26236608  0.71322211     0.88300
C824        C  0.68875863  0.26278285  0.67409334     0.88300
C825        C  0.66892034  0.26338935  0.69481123     0.88300
C826        C  0.70785170  0.26201833  0.69312436     0.88500
O827        O  0.78783696  0.25331392  0.81168647    -0.73800
O828        O  0.81700833  0.25518827  0.81100131    -0.73900
O829        O  0.80237326  0.25509334  0.82622151    -0.73900
O830        O  0.80216813  0.25356063  0.79679551    -0.74000
O831        O  0.80079967  0.27056096  0.79596432    -0.73900
O832        O  0.80151314  0.27209718  0.82523973    -0.73900
O833        O  0.81593841  0.27219983  0.81002000    -0.73900
O834        O  0.78669371  0.27031561  0.81097713    -0.73900
Ni835      Ni  0.80243573  0.25368803  0.81150381     1.25400
Ni836      Ni  0.80124429  0.27189817  0.81056055     1.25400
C837        C  0.78243314  0.26148923  0.81137340     0.88300
C838        C  0.82126086  0.26394404  0.80982676     0.88300
C839        C  0.80149750  0.26387130  0.83058471     0.88300
C840        C  0.80128498  0.26181600  0.79154750     0.88500
C841        C  0.75794876  0.26876870  0.68874761    -0.27000
C842        C  0.75210908  0.26114326  0.69356176     0.02600
C843        C  0.75714894  0.25305790  0.69862339     0.30700
C844        C  0.76781780  0.25256995  0.69863852    -0.18800
C845        C  0.77367375  0.26016246  0.69380120    -0.28200
C846        C  0.76864883  0.26833439  0.68884823     0.44700
C847        C  0.74078382  0.26154925  0.69313203     0.05900
O848        O  0.75171034  0.24560716  0.70362287    -0.56700
H849        H  0.77152511  0.24627170  0.70257608     0.18800
O850        O  0.77408399  0.27580208  0.68387972    -0.63400
H851        H  0.75419517  0.27497696  0.68471784     0.17300
C852        C  0.73540634  0.27040445  0.69611088     0.29500
C853        C  0.72471588  0.27048881  0.69587903    -0.24300
C854        C  0.71917494  0.26177210  0.69281948    -0.23600
C855        C  0.72458440  0.25299247  0.68959263     0.41000
C856        C  0.73528019  0.25293972  0.68978128    -0.26100
O857        O  0.74051355  0.27895095  0.69946900    -0.58000
H858        H  0.72075820  0.27735154  0.69834340     0.16600
O859        O  0.71953478  0.24442510  0.68620761    -0.59400
H860        H  0.73930521  0.24613905  0.68725128     0.15100
H861        H  0.77563270  0.27289683  0.67703289     0.46900
H862        H  0.74118710  0.27806394  0.70698023     0.42300
H863        H  0.71882435  0.24535621  0.67869681     0.45700
H864        H  0.75130957  0.24794567  0.71083569     0.37200
C865        C  0.80335800  0.26838392  0.74175351    -0.27000
C866        C  0.80078930  0.25952299  0.74725175     0.02600
C867        C  0.79857974  0.25044815  0.74183298     0.30700
C868        C  0.79936143  0.25025381  0.73113390    -0.18800
C869        C  0.80224884  0.25903940  0.72562890    -0.28200
C870        C  0.80409821  0.26821353  0.73106905     0.44700
C871        C  0.80064250  0.25987379  0.75862678     0.05900
O872        O  0.79519942  0.24188781  0.74690267    -0.56700
H873        H  0.79762375  0.24318073  0.72714964     0.18800
O874        O  0.80666729  0.27707917  0.72607404    -0.63400
H875        H  0.80501035  0.27545223  0.74578579     0.17300
C876        C  0.80620726  0.25272060  0.76451020     0.29500
C877        C  0.80613262  0.25331435  0.77520221    -0.24300
C878        C  0.80090067  0.26122650  0.78023927    -0.23600
C879        C  0.79548931  0.26851635  0.77436578     0.41000
C880        C  0.79535154  0.26776812  0.76366562    -0.26100
O881        O  0.81205059  0.24531972  0.75989689    -0.58000
H882        H  0.81047490  0.24774416  0.77956372     0.16600
O883        O  0.79026943  0.27637737  0.77898269    -0.59400
H884        H  0.79109757  0.27338805  0.75927966     0.15100
H885        H  0.81423532  0.27696190  0.72561189     0.46900
H886        H  0.81856266  0.24875957  0.75812847     0.42300
H887        H  0.78340762  0.27356862  0.78051189     0.45700
H888        H  0.80043943  0.23652255  0.74566285     0.37200
C889        C  0.68472424  0.26716099  0.76359809    -0.27000
C890        C  0.68865884  0.25920860  0.75754227     0.02600
C891        C  0.69227659  0.25024674  0.76236881     0.30700
C892        C  0.69162612  0.24923598  0.77304038    -0.18800
C893        C  0.68745412  0.25708725  0.77910610    -0.28200
C894        C  0.68405999  0.26615489  0.77425939     0.44700
C895        C  0.68860551  0.26019654  0.74619225     0.05900
O896        O  0.69684884  0.24263448  0.75673735    -0.56700
H897        H  0.69450930  0.24230310  0.77657568     0.18800
O898        O  0.67993729  0.27405146  0.77982020    -0.63400
H899        H  0.68191036  0.27409955  0.76001636     0.17300
C900        C  0.68391851  0.25267000  0.74004161     0.29500
C901        C  0.68420313  0.25346376  0.72937983    -0.24300
C902        C  0.68870531  0.26195643  0.72457786    -0.23600
C903        C  0.69292809  0.26979242  0.73072737     0.41000
C904        C  0.69292268  0.26883395  0.74144653    -0.26100
O905        O  0.67879006  0.24461309  0.74437724    -0.58000
H906        H  0.68063891  0.24749169  0.72484340     0.16600
O907        O  0.69712119  0.27837031  0.72637288    -0.59400
H908        H  0.69636735  0.27481474  0.74606281     0.15100
H909        H  0.67252662  0.27248765  0.78026872     0.46900
H910        H  0.67193967  0.24736930  0.74615742     0.42300
H911        H  0.70453166  0.27689037  0.72581333     0.45700
H912        H  0.69236677  0.23653669  0.75745574     0.37200
C913        C  0.73382470  0.25038061  0.80548184    -0.27000
C914        C  0.73840423  0.25769963  0.81187437     0.02600
C915        C  0.73218218  0.26428535  0.81772224     0.30700
C916        C  0.72153193  0.26351390  0.81707233    -0.18800
C917        C  0.71695714  0.25613400  0.81072440    -0.28200
C918        C  0.72319471  0.24958263  0.80485182     0.44700
C919        C  0.74966294  0.25865325  0.81202875     0.05900
O920        O  0.73643886  0.27146690  0.82411272    -0.56700
H921        H  0.71684200  0.26857845  0.82167070     0.18800
O922        O  0.71898327  0.24254253  0.79827865    -0.63400
H923        H  0.73851477  0.24541025  0.80078293     0.17300
C924        C  0.75594801  0.25012616  0.81402229     0.29500
C925        C  0.76657822  0.25115748  0.81375106    -0.24300
C926        C  0.77114011  0.26064986  0.81151051    -0.23600
C927        C  0.76479333  0.26914576  0.80937740     0.41000
C928        C  0.75416851  0.26810737  0.80972763    -0.26100
O929        O  0.75177753  0.24075019  0.81624948    -0.58000
H930        H  0.77124848  0.24449138  0.81536413     0.16600
O931        O  0.76884252  0.27848019  0.80680710    -0.59400
H932        H  0.74941272  0.27467631  0.80796223     0.15100
H933        H  0.71832395  0.24616949  0.79162805     0.46900
H934        H  0.75053939  0.24086108  0.82373180     0.42300
H935        H  0.76960231  0.27828600  0.79925274     0.45700
H936        H  0.73754103  0.26787058  0.83071144     0.37200
C937        C  0.09060635  0.24101729  0.75516053    -0.27000
C938        C  0.08673817  0.24816251  0.74809668     0.02600
C939        C  0.08270106  0.24452931  0.73873549     0.30700
C940        C  0.08241732  0.23395658  0.73668619    -0.18800
C941        C  0.08599876  0.22682744  0.74391507    -0.28200
C942        C  0.09014086  0.23047808  0.75320228     0.44700
C943        C  0.08639351  0.25926044  0.75091593     0.05900
O944        O  0.07870536  0.25120758  0.73168072    -0.56700
H945        H  0.07920307  0.23128706  0.72951454     0.18800
O946        O  0.09340267  0.22379557  0.76061769    -0.63400
H947        H  0.09378701  0.24362072  0.76237661     0.17300
C948        C  0.08194703  0.26239655  0.76023372     0.29500
C949        C  0.08172871  0.27276289  0.76293247    -0.24300
C950        C  0.08569262  0.28031706  0.75641415    -0.23600
C951        C  0.09014863  0.27724877  0.74706754     0.41000
C952        C  0.09045497  0.26678899  0.74437838    -0.26100
O953        O  0.07760110  0.25538867  0.76671649    -0.58000
H954        H  0.07834090  0.27494500  0.77017124     0.16600
O955        O  0.09370763  0.28442380  0.74029589    -0.59400
H956        H  0.09388694  0.26455876  0.73717063     0.15100
H957        H  0.08709879  0.22142345  0.76407760     0.46900
H958        H  0.07051961  0.25444884  0.76414430     0.42300
H959        H  0.10122198  0.28331690  0.73995699     0.45700
H960        H  0.07148088  0.25222034  0.73376087     0.37200
C961        C  0.04970038  0.29031737  0.77346597    -0.27000
C962        C  0.04429431  0.28810014  0.76443265     0.02600
C963        C  0.04982278  0.28660429  0.75527899     0.30700
C964        C  0.06047401  0.28809721  0.75511052    -0.18800
C965        C  0.06572301  0.29109232  0.76401234    -0.28200
C966        C  0.06030263  0.29178050  0.77330430     0.44700
C967        C  0.03289540  0.28838673  0.76454731     0.05900
O968        O  0.04482604  0.28414642  0.74636711    -0.56700
H969        H  0.06452001  0.28756418  0.74789915     0.18800
O970        O  0.06523363  0.29449333  0.78218428    -0.63400
H971        H  0.04561538  0.29147365  0.78058380     0.17300
C972        C  0.02722459  0.28231243  0.77141562     0.29500
C973        C  0.01661596  0.28368374  0.77232204    -0.24300
C974        C  0.01150228  0.29117312  0.76654429    -0.23600
C975        C  0.01710838  0.29709619  0.75952645     0.41000
C976        C  0.02768751  0.29558997  0.75846206    -0.26100
O977        O  0.03203889  0.27527641  0.77755377    -0.58000
H978        H  0.01245306  0.27922778  0.77792412     0.16600
O979        O  0.01232644  0.30447708  0.75377704    -0.59400
H980        H  0.03191865  0.30041756  0.75322580     0.15100
H981        H  0.06811999  0.28800663  0.78490614     0.46900
H982        H  0.03263086  0.26901588  0.77330484     0.42300
H983        H  0.01311753  0.31091030  0.75773400     0.45700
H984        H  0.04356765  0.27667024  0.74679357     0.37200
C985        C  0.02714844  0.21846403  0.74110413    -0.27000
C986        C  0.03354096  0.21991124  0.73254821     0.02600
C987        C  0.02894533  0.22059914  0.72274854     0.30700
C988        C  0.01844727  0.21890008  0.72155393    -0.18800
C989        C  0.01220038  0.21711124  0.73005182    -0.28200
C990        C  0.01654398  0.21724255  0.73991337     0.44700
C991        C  0.04493121  0.21932052  0.73370799     0.05900
O992        O  0.03468612  0.22267048  0.71422044    -0.56700
H993        H  0.01514573  0.21900027  0.71393274     0.18800
O994        O  0.01057062  0.21573978  0.74840021    -0.63400
H995        H  0.03039456  0.21775318  0.74870340     0.17300
C996        C  0.05026172  0.22388692  0.74199427     0.29500
C997        C  0.06070220  0.22171990  0.74359655    -0.24300
C998        C  0.06601231  0.21525647  0.73685154    -0.23600
C999        C  0.06089821  0.21142713  0.72816222     0.41000
C1000       C  0.05048484  0.21324307  0.72679029    -0.26100
O1001       O  0.04528541  0.23017161  0.74876728    -0.58000
H1002       H  0.06449623  0.22468930  0.75035947     0.16600
O1003       O  0.06591019  0.20531749  0.72124317    -0.59400
H1004       H  0.04667308  0.20940268  0.72050150     0.15100
H1005       H  0.00968032  0.20822594  0.74891387     0.46900
H1006       H  0.04647598  0.23721180  0.74620467     0.42300
H1007       H  0.06835352  0.21005060  0.71585037     0.45700
H1008       H  0.03414825  0.23017172  0.71323863     0.37200
C1009       C  0.99908224  0.24704863  0.73955340    -0.27000
C1010       C  0.99316352  0.24803215  0.74847370     0.02600
C1011       C  0.98719365  0.23965554  0.75173487     0.30700
C1012       C  0.98746669  0.23044539  0.74623982    -0.18800
C1013       C  0.99337793  0.22953425  0.73734399    -0.28200
C1014       C  0.99902062  0.23799465  0.73388421     0.44700
C1015       C  0.99288848  0.25806342  0.75382013     0.05900
O1016       O  0.98054662  0.24063526  0.75980080    -0.56700
H1017       H  0.98290108  0.22403100  0.74881357     0.18800
O1018       O  0.00421399  0.23762663  0.72478589    -0.63400
H1019       H  0.00361812  0.25342713  0.73683173     0.17300
C1020       C  0.99421783  0.25889798  0.76452696     0.29500
C1021       C  0.99398607  0.26856275  0.76920321    -0.24300
C1022       C  0.99276262  0.27740624  0.76330683    -0.23600
C1023       C  0.99187584  0.27664584  0.75263432     0.41000
C1024       C  0.99167470  0.26702856  0.74798091    -0.26100
O1025       O  0.99638614  0.25041617  0.77034801    -0.58000
H1026       H  0.99496693  0.26920791  0.77741699     0.16600
O1027       O  0.99080231  0.28528349  0.74676060    -0.59400
H1028       H  0.99061707  0.26657975  0.73975942     0.15100
H1029       H  0.99888431  0.23812708  0.71939017     0.46900
H1030       H  0.99079720  0.24993424  0.77545006     0.42300
H1031       H  0.99780239  0.28694235  0.74438680     0.45700
H1032       H  0.98278796  0.23553377  0.76495884     0.37200
C1033       C  0.86732980  0.27776780  0.79485293    -0.27000
C1034       C  0.86392579  0.26806300  0.79803099     0.02600
C1035       C  0.87107161  0.25991065  0.79828079     0.30700
C1036       C  0.88141432  0.26170541  0.79599499    -0.18800
C1037       C  0.88486605  0.27160318  0.79373122    -0.28200
C1038       C  0.87771050  0.27962801  0.79302179     0.44700
C1039       C  0.85309505  0.26674365  0.80152137     0.05900
O1040       O  0.86819670  0.25029465  0.80134724    -0.56700
H1041       H  0.88687501  0.25550424  0.79675330     0.18800
O1042       O  0.88085825  0.28939226  0.79077046    -0.63400
H1043       H  0.86198331  0.28407416  0.79419034     0.17300
C1044       C  0.84839462  0.27402112  0.80803845     0.29500
C1045       C  0.83809164  0.27297516  0.81080038    -0.24300
C1046       C  0.83235681  0.26450112  0.80755507    -0.23600
C1047       C  0.83711517  0.25702439  0.80136335     0.41000
C1048       C  0.84732324  0.25823682  0.79831786    -0.26100
O1049       O  0.85380934  0.28219290  0.81181658    -0.58000
H1050       H  0.83459155  0.27879214  0.81557062     0.16600
O1051       O  0.83174886  0.24867700  0.79790192    -0.59400
H1052       H  0.85063498  0.25260753  0.79321129     0.15100
H1053       H  0.88106968  0.29303280  0.79744059     0.46900
H1054       H  0.85647732  0.27988506  0.81854238     0.42300
H1055       H  0.82872504  0.25083647  0.79127639     0.45700
H1056       H  0.86855795  0.25043924  0.80893424     0.37200
C1057       C  0.94111253  0.27107779  0.79034002    -0.27000
C1058       C  0.94340598  0.27741393  0.78195041     0.02600
C1059       C  0.93519628  0.28145823  0.77613813     0.30700
C1060       C  0.92501884  0.27946751  0.77897011    -0.18800
C1061       C  0.92281297  0.27370557  0.78774409    -0.28200
C1062       C  0.93095735  0.26938329  0.79334943     0.44700
C1063       C  0.95428681  0.28024605  0.77970412     0.05900
O1064       O  0.93701017  0.28787413  0.76803581    -0.56700
H1065       H  0.91885107  0.28305105  0.77472544     0.18800
O1066       O  0.92904362  0.26362272  0.80191600    -0.63400
H1067       H  0.94722818  0.26767277  0.79479245     0.17300
C1068       C  0.96082915  0.28395970  0.78749147     0.29500
C1069       C  0.97072356  0.28733380  0.78510247    -0.24300
C1070       C  0.97441047  0.28707802  0.77501684    -0.23600
C1071       C  0.96796672  0.28319643  0.76724952     0.41000
C1072       C  0.95807995  0.27971499  0.76964280    -0.26100
O1073       O  0.95740891  0.28496120  0.79736686    -0.58000
H1074       H  0.97549429  0.29037902  0.79118196     0.16600
O1075       O  0.97099911  0.28322739  0.75722222    -0.59400
H1076       H  0.95326165  0.27680909  0.76353909     0.15100
H1077       H  0.93022042  0.26830011  0.80779200     0.46900
H1078       H  0.96101787  0.27955667  0.80131123     0.42300
H1079       H  0.96815888  0.28962554  0.75428425     0.45700
H1080       H  0.93730169  0.29485002  0.77104544     0.37200
C1081       C  0.87414141  0.25483191  0.70079339    -0.27000
C1082       C  0.86660956  0.25074829  0.70721902     0.02600
C1083       C  0.86962173  0.24445252  0.71547220     0.30700
C1084       C  0.87995563  0.24184466  0.71683079    -0.18800
C1085       C  0.88740415  0.24538765  0.70998231    -0.28200
C1086       C  0.88444657  0.25213765  0.70206599     0.44700
C1087       C  0.85563315  0.25218985  0.70458011     0.05900
O1088       O  0.86245548  0.24044074  0.72197866    -0.56700
H1089       H  0.88204663  0.23655448  0.72286924     0.18800
O1090       O  0.89159592  0.25602876  0.69544462    -0.63400
H1091       H  0.87197387  0.25968153  0.69441647     0.17300
C1092       C  0.85119807  0.26198563  0.70376010     0.29500
C1093       C  0.84087393  0.26301572  0.70090808    -0.24300
C1094       C  0.83480832  0.25435489  0.69874915    -0.23600
C1095       C  0.83936424  0.24454832  0.69952828     0.41000
C1096       C  0.84964705  0.24356494  0.70236587    -0.26100
O1097       O  0.85677506  0.27055970  0.70615516    -0.58000
H1098       H  0.83758122  0.27062391  0.70056961     0.16600
O1099       O  0.83389716  0.23582093  0.69746639    -0.59400
H1100       H  0.85299769  0.23598105  0.70278021     0.15100
H1101       H  0.89026358  0.25263592  0.68877620     0.46900
H1102       H  0.85864520  0.27364466  0.69948801     0.42300
H1103       H  0.83146077  0.23337496  0.70422433     0.45700
H1104       H  0.86140853  0.24577444  0.72728956     0.37200
C1105       C  0.93826222  0.23731338  0.72775205    -0.27000
C1106       C  0.94242093  0.22750620  0.72616046     0.02600
C1107       C  0.93613666  0.21981007  0.72192199     0.30700
C1108       C  0.92605339  0.22202310  0.71912599    -0.18800
C1109       C  0.92203456  0.23192546  0.72023469    -0.28200
C1110       C  0.92815910  0.23957523  0.72477778     0.44700
C1111       C  0.95346207  0.22541568  0.72811779     0.05900
O1112       O  0.93997192  0.21024874  0.71984502    -0.56700
H1113       H  0.92152763  0.21610152  0.71546404     0.18800
O1114       O  0.92474332  0.24948745  0.72536920    -0.63400
H1115       H  0.94297916  0.24334637  0.73094760     0.17300
C1116       C  0.96118175  0.23142879  0.72354878     0.29500
C1117       C  0.97143631  0.22829927  0.72408698    -0.24300
C1118       C  0.97412054  0.21914602  0.72902743    -0.23600
C1119       C  0.96654284  0.21347821  0.73409648     0.41000
C1120       C  0.95632306  0.21664576  0.73367385    -0.26100
O1121       O  0.95875043  0.24007754  0.71810189    -0.58000
H1122       H  0.97724081  0.23276312  0.72021436     0.16600
O1123       O  0.96902114  0.20468147  0.73926804    -0.59400
H1124       H  0.95054453  0.21203321  0.73740300     0.15100
H1125       H  0.92421019  0.25100205  0.73279719     0.46900
H1126       H  0.95755202  0.23769193  0.71098887     0.42300
H1127       H  0.97150124  0.20701507  0.74607722     0.45700
H1128       H  0.94318292  0.21083748  0.71299078     0.37200
C1129       C  0.90175118  0.25707784  0.74065523    -0.27000
C1130       C  0.90136313  0.25019846  0.74893726     0.02600
C1131       C  0.90127237  0.23957280  0.74684541     0.30700
C1132       C  0.90201446  0.23608038  0.73666545    -0.18800
C1133       C  0.90257572  0.24303972  0.72850126    -0.28200
C1134       C  0.90217263  0.25357450  0.73054225     0.44700
C1135       C  0.90112665  0.25446124  0.75956690     0.05900
O1136       O  0.89998377  0.23261264  0.75461294    -0.56700
H1137       H  0.90212054  0.22793001  0.73510868     0.18800
O1138       O  0.90294470  0.26050532  0.72270267    -0.63400
H1139       H  0.90192769  0.26526006  0.74203401     0.17300
C1140       C  0.90813129  0.25132172  0.76720171     0.29500
C1141       C  0.90864458  0.25661384  0.77657034    -0.24300
C1142       C  0.90233406  0.26510215  0.77850392    -0.23600
C1143       C  0.89522615  0.26810525  0.77095567     0.41000
C1144       C  0.89455451  0.26271768  0.76170919    -0.26100
O1145       O  0.91504118  0.24364508  0.76530343    -0.58000
H1146       H  0.91416020  0.25421220  0.78228517     0.16600
O1147       O  0.88925112  0.27662653  0.77227793    -0.59400
H1148       H  0.88912575  0.26529034  0.75597767     0.15100
H1149       H  0.89589806  0.26305512  0.72157275     0.46900
H1150       H  0.91322920  0.23803145  0.77009505     0.42300
H1151       H  0.89372572  0.28250854  0.77057696     0.45700
H1152       H  0.90615228  0.22818943  0.75450617     0.37200
C1153       C  0.62158370  0.23888065  0.78939699    -0.27000
C1154       C  0.62419526  0.24664698  0.79643025     0.02600
C1155       C  0.61626624  0.25242234  0.80092456     0.30700
C1156       C  0.60601621  0.25004227  0.79881518    -0.18800
C1157       C  0.60343004  0.24187805  0.79230760    -0.28200
C1158       C  0.61130187  0.23639664  0.78743070     0.44700
C1159       C  0.63508544  0.24809506  0.79966574     0.05900
O1160       O  0.61842239  0.25998768  0.80789548    -0.56700
H1161       H  0.60003719  0.25416470  0.80281679     0.18800
O1162       O  0.60905540  0.22828853  0.78113610    -0.63400
H1163       H  0.62755004  0.23442828  0.78575381     0.17300
C1164       C  0.64088112  0.23978144  0.80340661     0.29500
C1165       C  0.65108220  0.24118209  0.80645338    -0.24300
C1166       C  0.65576895  0.25086862  0.80600410    -0.23600
C1167       C  0.64991301  0.25923740  0.80236100     0.41000
C1168       C  0.63968631  0.25781546  0.79929700    -0.26100
O1169       O  0.63661702  0.23022025  0.80419479    -0.58000
H1170       H  0.65535402  0.23460334  0.80915929     0.16600
O1171       O  0.65415330  0.26880135  0.80147970    -0.59400
H1172       H  0.63539080  0.26431106  0.79642858     0.15100
H1173       H  0.60894010  0.22220581  0.78567581     0.46900
H1174       H  0.63341022  0.23005641  0.81106740     0.42300
H1175       H  0.65706912  0.26902983  0.79448402     0.45700
H1176       H  0.61867872  0.25648793  0.81462804     0.37200
C1177       C  0.61918195  0.26099028  0.70672181    -0.27000
C1178       C  0.62671485  0.26865925  0.70738027     0.02600
C1179       C  0.62388810  0.27840707  0.71112243     0.30700
C1180       C  0.61365902  0.28053288  0.71346841    -0.18800
C1181       C  0.60607304  0.27303003  0.71233664    -0.28200
C1182       C  0.60892261  0.26314180  0.70910725     0.44700
C1183       C  0.63730737  0.26670725  0.70356352     0.05900
O1184       O  0.63099342  0.28607464  0.71208460    -0.56700
H1185       H  0.61153789  0.28825867  0.71564741     0.18800
O1186       O  0.60162357  0.25576912  0.70749711    -0.63400
H1187       H  0.62113210  0.25348605  0.70376616     0.17300
C1188       C  0.64304762  0.25814429  0.70680688     0.29500
C1189       C  0.65315071  0.25680102  0.70340794    -0.24300
C1190       C  0.65777400  0.26400297  0.69688791    -0.23600
C1191       C  0.65190899  0.27235019  0.69335917     0.41000
C1192       C  0.64179081  0.27360313  0.69662971    -0.26100
O1193       O  0.63900174  0.25124708  0.71359555    -0.58000
H1194       H  0.65754318  0.25038039  0.70630147     0.16600
O1195       O  0.65604070  0.27945580  0.68683804    -0.59400
H1196       H  0.63744780  0.28008492  0.69380343     0.15100
H1197       H  0.59955546  0.25653881  0.70021987     0.46900
H1198       H  0.64064179  0.25402602  0.72047402     0.42300
H1199       H  0.65589353  0.27618984  0.67998262     0.45700
H1200       H  0.63402997  0.28513138  0.71897567     0.37200
C1201       C  0.59298441  0.26793025  0.74523371    -0.27000
C1202       C  0.58655262  0.25952896  0.74703726     0.02600
C1203       C  0.58058521  0.25563966  0.73893071     0.30700
C1204       C  0.58113731  0.26011550  0.72918317    -0.18800
C1205       C  0.58758771  0.26851078  0.72734589    -0.28200
C1206       C  0.59351455  0.27242442  0.73548999     0.44700
C1207       C  0.58627107  0.25472544  0.75733632     0.05900
O1208       O  0.57386950  0.24774945  0.74059471    -0.56700
H1209       H  0.57640621  0.25712424  0.72305558     0.18800
O1210       O  0.59958843  0.28085692  0.73409040    -0.63400
H1211       H  0.59758109  0.27102803  0.75141735     0.17300
C1212       C  0.59028810  0.24483761  0.75887002     0.29500
C1213       C  0.58988743  0.24031118  0.76858267    -0.24300
C1214       C  0.58554185  0.24553420  0.77688495    -0.23600
C1215       C  0.58157679  0.25543686  0.77540830     0.41000
C1216       C  0.58199380  0.26000429  0.76568375    -0.26100
O1217       O  0.59457371  0.23953089  0.75088938    -0.58000
H1218       H  0.59280208  0.23262037  0.76961942     0.16600
O1219       O  0.57719172  0.26063783  0.78339917    -0.59400
H1220       H  0.57887597  0.26762001  0.76461677     0.15100
H1221       H  0.59497959  0.28682278  0.73497738     0.46900
H1222       H  0.60204008  0.24069530  0.75153351     0.42300
H1223       H  0.58299713  0.26317326  0.78758567     0.45700
H1224       H  0.57733837  0.24154763  0.73794865     0.37200
C1225       C  0.52602667  0.24470776  0.78386187    -0.27000
C1226       C  0.53328658  0.23703442  0.78179728     0.02600
C1227       C  0.52987751  0.22697824  0.77984866     0.30700
C1228       C  0.51943638  0.22463833  0.78039090    -0.18800
C1229       C  0.51222335  0.23224094  0.78270333    -0.28200
C1230       C  0.51556167  0.24237493  0.78430337     0.44700
C1231       C  0.54436241  0.23909280  0.78338004     0.05900
O1232       O  0.53676953  0.21921371  0.77827354    -0.56700
H1233       H  0.51697887  0.21679703  0.77922447     0.18800
O1234       O  0.50873010  0.24993963  0.78682527    -0.63400
H1235       H  0.52852811  0.25244052  0.78554171     0.17300
C1236       C  0.55171270  0.23705120  0.77575524     0.29500
C1237       C  0.56218441  0.23699856  0.77825095    -0.24300
C1238       C  0.56545973  0.23915186  0.78828627    -0.23600
C1239       C  0.55809320  0.24209119  0.79563054     0.41000
C1240       C  0.54768927  0.24200199  0.79316246    -0.26100
O1241       O  0.54871681  0.23470422  0.76596286    -0.58000
H1242       H  0.56766676  0.23476689  0.77246560     0.16600
O1243       O  0.56093353  0.24465273  0.80542428    -0.59400
H1244       H  0.54215483  0.24369809  0.79909351     0.15100
H1245       H  0.50753267  0.24913877  0.79428292     0.46900
H1246       H  0.54814471  0.24140261  0.76241808     0.42300
H1247       H  0.56367835  0.25171643  0.80493515     0.45700
H1248       H  0.53660123  0.21788747  0.77079636     0.37200
C1249       C  0.53229862  0.28957806  0.71974184    -0.27000
C1250       C  0.53552855  0.27933393  0.71995558     0.02600
C1251       C  0.52812656  0.27150438  0.71968530     0.30700
C1252       C  0.51770057  0.27398987  0.71881007    -0.18800
C1253       C  0.51448416  0.28424083  0.71812930    -0.28200
C1254       C  0.52191639  0.29206250  0.71881196     0.44700
C1255       C  0.54664144  0.27705159  0.71918835     0.05900
O1256       O  0.53104802  0.26141844  0.72024973    -0.56700
H1257       H  0.51221288  0.26783999  0.71814416     0.18800
O1258       O  0.51916745  0.30219147  0.71830075    -0.63400
H1259       H  0.53790208  0.29569060  0.71986174     0.17300
C1260       C  0.55053964  0.27237451  0.71029930     0.29500
C1261       C  0.56110160  0.27193765  0.70869810    -0.24300
C1262       C  0.56797901  0.27599762  0.71589004    -0.23600
C1263       C  0.56414596  0.28019000  0.72505430     0.41000
C1264       C  0.55352305  0.28072877  0.72663701    -0.26100
O1265       O  0.54406505  0.26911968  0.70267925    -0.58000
H1266       H  0.56393163  0.26883158  0.70154389     0.16600
O1267       O  0.57064360  0.28432381  0.73220650    -0.59400
H1268       H  0.55063504  0.28440953  0.73348515     0.15100
H1269       H  0.51660076  0.30392190  0.72521909     0.46900
H1270       H  0.54473748  0.26154174  0.70255491     0.42300
H1271       H  0.57191798  0.29143351  0.72988423     0.45700
H1272       H  0.52916940  0.25834966  0.71354759     0.37200
C1273       C  0.49653008  0.27253922  0.74751659    -0.27000
C1274       C  0.49498800  0.26201298  0.74584470     0.02600
C1275       C  0.49357575  0.25838843  0.73576826     0.30700
C1276       C  0.49397473  0.26522153  0.72755398    -0.18800
C1277       C  0.49546672  0.27568163  0.72925048    -0.28200
C1278       C  0.49669369  0.27937210  0.73927003     0.44700
C1279       C  0.49477037  0.25486805  0.75463097     0.05900
O1280       O  0.49123743  0.24829213  0.73396427    -0.56700
H1281       H  0.49301486  0.26238586  0.71981617     0.18800
O1282       O  0.49811671  0.28962763  0.74102586    -0.63400
H1283       H  0.49760855  0.27544425  0.75521910     0.17300
C1284       C  0.50104935  0.24609612  0.75478331     0.29500
C1285       C  0.50028201  0.23910956  0.76280731    -0.24300
C1286       C  0.49362515  0.24089894  0.77101005    -0.23600
C1287       C  0.48764262  0.24987944  0.77109618     0.41000
C1288       C  0.48817490  0.25674756  0.76289306    -0.26100
O1289       O  0.50801581  0.24429651  0.74715386    -0.58000
H1290       H  0.50494015  0.23225232  0.76265426     0.16600
O1291       O  0.48133303  0.25206090  0.77917617    -0.59400
H1292       H  0.48338238  0.26352173  0.76294402     0.15100
H1293       H  0.49116249  0.29268229  0.74077868     0.46900
H1294       H  0.51391522  0.24878285  0.74876214     0.42300
H1295       H  0.48583698  0.25508719  0.78449623     0.45700
H1296       H  0.49700710  0.24552030  0.72988745     0.37200
C1297       C  0.43813280  0.23010482  0.76150317    -0.27000
C1298       C  0.44247561  0.22791777  0.77112997     0.02600
C1299       C  0.43644944  0.22287053  0.77852776     0.30700
C1300       C  0.42650581  0.21980505  0.77614784    -0.18800
C1301       C  0.42237575  0.22148524  0.76638948    -0.28200
C1302       C  0.42820366  0.22679805  0.75905730     0.44700
C1303       C  0.45349460  0.22996503  0.77322116     0.05900
O1304       O  0.44039968  0.22031110  0.78792878    -0.56700
H1305       H  0.42217779  0.21556272  0.78180027     0.18800
O1306       O  0.42457532  0.22818951  0.74929859    -0.63400
H1307       H  0.44260083  0.23399912  0.75572070     0.17300
C1308       C  0.46119516  0.22637962  0.76653291     0.29500
C1309       C  0.47149603  0.22676122  0.76952389    -0.24300
C1310       C  0.47422569  0.23031669  0.77928129    -0.23600
C1311       C  0.46662942  0.23418583  0.78581741     0.41000
C1312       C  0.45640898  0.23431102  0.78263789    -0.26100
O1313       O  0.45871946  0.22188903  0.75735526    -0.58000
H1314       H  0.47730037  0.22367247  0.76447822     0.16600
O1315       O  0.46912507  0.23771931  0.79539750    -0.59400
H1316       H  0.45066019  0.23728775  0.78780881     0.15100
H1317       H  0.42649007  0.22187640  0.74552832     0.46900
H1318       H  0.45734828  0.21460118  0.75899804     0.42300
H1319       H  0.46759732  0.23195347  0.80010211     0.45700
H1320       H  0.44399810  0.21370896  0.78685896     0.37200
C1321       C  0.44056977  0.29127238  0.73845168    -0.27000
C1322       C  0.44443764  0.28654803  0.72958147     0.02600
C1323       C  0.43747087  0.28328389  0.72196196     0.30700
C1324       C  0.42698971  0.28527079  0.72302550    -0.18800
C1325       C  0.42327424  0.29068086  0.73151092    -0.28200
C1326       C  0.43013440  0.29359968  0.73930682     0.44700
C1327       C  0.45569139  0.28633676  0.72765459     0.05900
O1328       O  0.44088272  0.27887885  0.71306077    -0.56700
H1329       H  0.42185031  0.28330426  0.71680399     0.18800
O1330       O  0.42681210  0.29929565  0.74748273    -0.63400
H1331       H  0.44575058  0.29377788  0.74443646     0.17300
C1332       C  0.46154145  0.29539591  0.72843380     0.29500
C1333       C  0.47178557  0.29546772  0.72536424    -0.24300
C1334       C  0.47640250  0.28666938  0.72129921    -0.23600
C1335       C  0.47065938  0.27757074  0.72058444     0.41000
C1336       C  0.46042866  0.27742605  0.72389577    -0.26100
O1337       O  0.45719280  0.30439341  0.73167484    -0.58000
H1338       H  0.47607137  0.30255568  0.72584239     0.16600
O1339       O  0.47463220  0.26913966  0.71572425    -0.59400
H1340       H  0.45605679  0.27042098  0.72312114     0.15100
H1341       H  0.42762236  0.30653833  0.74534997     0.46900
H1342       H  0.45361588  0.30719613  0.72557205     0.42300
H1343       H  0.47371242  0.26331934  0.72050204     0.45700
H1344       H  0.44269101  0.28469485  0.70853013     0.37200
C1345       C  0.39399225  0.26534693  0.74014206    -0.27000
C1346       C  0.40057158  0.26226230  0.74809278     0.02600
C1347       C  0.40785393  0.26933141  0.75181130     0.30700
C1348       C  0.40854736  0.27913787  0.74746018    -0.18800
C1349       C  0.40230938  0.28202895  0.73918575    -0.28200
C1350       C  0.39495210  0.27499409  0.73557034     0.44700
C1351       C  0.40060906  0.25131067  0.75140021     0.05900
O1352       O  0.41491683  0.26644617  0.75904604    -0.56700
H1353       H  0.41419290  0.28440356  0.75041304     0.18800
O1354       O  0.38905275  0.27717425  0.72717163    -0.63400
H1355       H  0.38837767  0.26004192  0.73710881     0.17300
C1356       C  0.40079637  0.24837253  0.76181438     0.29500
C1357       C  0.40186007  0.23797110  0.76444505    -0.24300
C1358       C  0.40241813  0.23041914  0.75682549    -0.23600
C1359       C  0.40156375  0.23327105  0.74650682     0.41000
C1360       C  0.40082701  0.24361969  0.74384944    -0.26100
O1361       O  0.39950732  0.25554508  0.76940349    -0.58000
H1362       H  0.40223857  0.23576827  0.77243230     0.16600
O1363       O  0.40215112  0.22600503  0.73894374    -0.59400
H1364       H  0.40070890  0.24565107  0.73580750     0.15100
H1365       H  0.39359611  0.27613988  0.72119605     0.46900
H1366       H  0.40571579  0.25513190  0.77375984     0.42300
H1367       H  0.39502795  0.22505193  0.73652220     0.45700
H1368       H  0.41355173  0.27082261  0.76510713     0.37200
C1369       C  0.73486294  0.24841921  0.10283130    -0.27000
C1370       C  0.74278711  0.25267753  0.09693989     0.02600
C1371       C  0.74850622  0.24609942  0.09052822     0.30700
C1372       C  0.74606648  0.23565507  0.08988166    -0.18800
C1373       C  0.73789791  0.23153117  0.09546979    -0.28200
C1374       C  0.73233092  0.23799910  0.10205701     0.44700
C1375       C  0.74458866  0.26401051  0.09706312     0.05900
O1376       O  0.75631272  0.24982432  0.08461147    -0.56700
H1377       H  0.75047133  0.23075559  0.08485238     0.18800
O1378       O  0.72394541  0.23436417  0.10718990    -0.63400
H1379       H  0.73045738  0.25322396  0.10794608     0.17300
C1380       C  0.73634524  0.27097375  0.09612997     0.29500
C1381       C  0.73819064  0.28154064  0.09567875    -0.24300
C1382       C  0.74817195  0.28537102  0.09586833    -0.23600
C1383       C  0.75641401  0.27854154  0.09684580     0.41000
C1384       C  0.75459766  0.26797078  0.09767211    -0.26100
O1385       O  0.72651999  0.26750120  0.09487185    -0.58000
H1386       H  0.73183141  0.28677249  0.09469365     0.16600
O1387       O  0.76624994  0.28216550  0.09701831    -0.59400
H1388       H  0.76105338  0.26285344  0.09860121     0.15100
H1389       H  0.72568215  0.23490150  0.11457545     0.46900
H1390       H  0.72290186  0.26936379  0.10127752     0.42300
H1391       H  0.76890608  0.28099134  0.08999409     0.45700
H1392       H  0.75305242  0.25190299  0.07807949     0.37200
C1393       C  0.77335664  0.28362708  0.04174970    -0.27000
C1394       C  0.76355894  0.28718011  0.04442461     0.02600
C1395       C  0.75676181  0.29004352  0.03648850     0.30700
C1396       C  0.75995345  0.28968369  0.02620324    -0.18800
C1397       C  0.76993255  0.28668134  0.02365252    -0.28200
C1398       C  0.77657251  0.28344608  0.03150514     0.44700
C1399       C  0.76112328  0.28912836  0.05545775     0.05900
O1400       O  0.74736443  0.29412672  0.03874812    -0.56700
H1401       H  0.75479794  0.29231279  0.02024928     0.18800
O1402       O  0.78624447  0.28008471  0.02922510    -0.63400
H1403       H  0.77868678  0.28132128  0.04768364     0.17300
C1404       C  0.75198614  0.28572623  0.06011731     0.29500
C1405       C  0.74959157  0.28879327  0.07020134    -0.24300
C1406       C  0.75624748  0.29518557  0.07572912    -0.23600
C1407       C  0.76568842  0.29789221  0.07134922     0.41000
C1408       C  0.76802615  0.29493972  0.06133250    -0.26100
O1409       O  0.74548848  0.27927403  0.05494286    -0.58000
H1410       H  0.74232820  0.28657691  0.07349281     0.16600
O1411       O  0.77252089  0.30386349  0.07665651    -0.59400
H1412       H  0.77513736  0.29755706  0.05799686     0.15100
H1413       H  0.79077955  0.28600089  0.03058117     0.46900
H1414       H  0.73892253  0.28301368  0.05431236     0.42300
H1415       H  0.77564108  0.29923015  0.08182667     0.45700
H1416       H  0.74229721  0.28914770  0.03604175     0.37200
C1417       C  0.72553507  0.23000658  0.06102884    -0.27000
C1418       C  0.73002634  0.22377035  0.05344557     0.02600
C1419       C  0.73694489  0.21606684  0.05656845     0.30700
C1420       C  0.73883440  0.21438839  0.06697624    -0.18800
C1421       C  0.73376124  0.22007210  0.07455131    -0.28200
C1422       C  0.72723321  0.22810890  0.07150741     0.44700
C1423       C  0.72674805  0.22450184  0.04246560     0.05900
O1424       O  0.74136461  0.20960660  0.04956503    -0.56700
H1425       H  0.74377034  0.20808189  0.06916723     0.18800
O1426       O  0.72191014  0.23366903  0.07864121    -0.63400
H1427       H  0.72029020  0.23604768  0.05883803     0.17300
C1428       C  0.71628743  0.22427574  0.03972996     0.29500
C1429       C  0.71337059  0.22333751  0.02942286    -0.24300
C1430       C  0.72071033  0.22255279  0.02163780    -0.23600
C1431       C  0.73115087  0.22305909  0.02430575     0.41000
C1432       C  0.73407747  0.22420795  0.03459132    -0.26100
O1433       O  0.70882316  0.22450734  0.04708664    -0.58000
H1434       H  0.70530850  0.22297586  0.02751853     0.16600
O1435       O  0.73858487  0.22194073  0.01700429    -0.59400
H1436       H  0.74214984  0.22445605  0.03645657     0.15100
H1437       H  0.71602979  0.22928915  0.08059614     0.46900
H1438       H  0.70771573  0.21725138  0.04902228     0.42300
H1439       H  0.73959765  0.21444058  0.01630770     0.45700
H1440       H  0.73619684  0.20418010  0.04827457     0.37200
C1441       C  0.74191215  0.24357592  0.99625478    -0.27000
C1442       C  0.73977938  0.25179052  0.00281386     0.02600
C1443       C  0.73116527  0.25147664  0.00919065     0.30700
C1444       C  0.72466466  0.24300394  0.00884924    -0.18800
C1445       C  0.72684600  0.23469005  0.00239660    -0.28200
C1446       C  0.73555675  0.23499096  0.99609580     0.44700
C1447       C  0.74710692  0.26024031  0.00358193     0.05900
O1448       O  0.72914731  0.25935243  0.01584664    -0.56700
H1449       H  0.71797581  0.24283201  0.01371864     0.18800
O1450       O  0.73801920  0.22684213  0.98994578    -0.63400
H1451       H  0.74866513  0.24372630  0.99146261     0.17300
C1452       C  0.75576945  0.25920822  0.00986198     0.29500
C1453       C  0.76299621  0.26703372  0.01022840    -0.24300
C1454       C  0.76166727  0.27594085  0.00439171    -0.23600
C1455       C  0.75282334  0.27711360  0.99834006     0.41000
C1456       C  0.74559430  0.26922753  0.99791797    -0.26100
O1457       O  0.75735019  0.25045071  0.01544248    -0.58000
H1458       H  0.76980771  0.26606819  0.01486403     0.16600
O1459       O  0.75123378  0.28589134  0.99280775    -0.59400
H1460       H  0.73886726  0.27006793  0.99312828     0.15100
H1461       H  0.74218184  0.22223683  0.99431616     0.46900
H1462       H  0.75348204  0.25148736  0.02188881     0.42300
H1463       H  0.74789897  0.29071329  0.99763943     0.45700
H1464       H  0.73175565  0.25698514  0.02258809     0.37200
C1465       C  0.79799085  0.27472524  0.85745714    -0.27000
C1466       C  0.79323114  0.26654417  0.86256474     0.02600
C1467       C  0.79195588  0.25719530  0.85727095     0.30700
C1468       C  0.79521274  0.25625626  0.84704279    -0.18800
C1469       C  0.79967733  0.26455780  0.84184291    -0.28200
C1470       C  0.80117653  0.27381146  0.84725080     0.44700
C1471       C  0.78944201  0.26808590  0.87327510     0.05900
O1472       O  0.78680482  0.24921759  0.86174299    -0.56700
H1473       H  0.79375949  0.24913811  0.84302445     0.18800
O1474       O  0.80551324  0.28214319  0.84257627    -0.63400
H1475       H  0.79915714  0.28194704  0.86138552     0.17300
C1476       C  0.79217461  0.26137531  0.88130459     0.29500
C1477       C  0.78926355  0.26358803  0.89142522    -0.24300
C1478       C  0.78380280  0.27252472  0.89379473    -0.23600
C1479       C  0.78098977  0.27918873  0.88581064     0.41000
C1480       C  0.78362317  0.27685576  0.87564888    -0.26100
O1481       O  0.79857143  0.25323887  0.87950466    -0.58000
H1482       H  0.79193873  0.25867357  0.89755923     0.16600
O1483       O  0.77603156  0.28820883  0.88791341    -0.59400
H1484       H  0.78145700  0.28214668  0.86963288     0.15100
H1485       H  0.81299350  0.28114212  0.84330754     0.46900
H1486       H  0.79458705  0.24703753  0.88134374     0.42300
H1487       H  0.78149148  0.29346143  0.88830961     0.45700
H1488       H  0.79181017  0.24350866  0.86217511     0.37200
C1489       C  0.77403868  0.27116413  0.97175101    -0.27000
C1490       C  0.77330824  0.27883146  0.96422157     0.02600
C1491       C  0.77254125  0.28913246  0.96740956     0.30700
C1492       C  0.77271934  0.29161777  0.97786914    -0.18800
C1493       C  0.77362224  0.28397970  0.98538830    -0.28200
C1494       C  0.77420732  0.27365682  0.98224572     0.44700
C1495       C  0.77435730  0.27621702  0.95311071     0.05900
O1496       O  0.77204062  0.29688894  0.96034690    -0.56700
H1497       H  0.77237784  0.29960157  0.98012229     0.18800
O1498       O  0.77578992  0.26604124  0.98930444    -0.63400
H1499       H  0.77474348  0.26321300  0.96948257     0.17300
C1500       C  0.78314288  0.27110195  0.94951541     0.29500
C1501       C  0.78494209  0.27026741  0.93896658    -0.24300
C1502       C  0.77805371  0.27435642  0.93177384    -0.23600
C1503       C  0.76893061  0.27884524  0.93531200     0.41000
C1504       C  0.76712211  0.27972484  0.94590458    -0.26100
O1505       O  0.79051591  0.26778772  0.95623313    -0.58000
H1506       H  0.79208558  0.26694450  0.93638847     0.16600
O1507       O  0.76208887  0.28304490  0.92853674    -0.59400
H1508       H  0.76027624  0.28360083  0.94850524     0.15100
H1509       H  0.76959109  0.26166010  0.98897878     0.46900
H1510       H  0.78945505  0.26029326  0.95681974     0.42300
H1511       H  0.76462919  0.29007742  0.92722885     0.45700
H1512       H  0.77925926  0.29859289  0.95876114     0.37200
C1513       C  0.70363922  0.24087441  0.87644053    -0.27000
C1514       C  0.69722971  0.24881408  0.87291188     0.02600
C1515       C  0.69270061  0.25538662  0.88021977     0.30700
C1516       C  0.69427053  0.25368120  0.89072813    -0.18800
C1517       C  0.70035755  0.24553291  0.89420292    -0.28200
C1518       C  0.70514645  0.23917130  0.88696607     0.44700
C1519       C  0.69472098  0.24960905  0.86171831     0.05900
O1520       O  0.68595767  0.26287370  0.87722810    -0.56700
H1521       H  0.69025545  0.25842990  0.89622038     0.18800
O1522       O  0.71077633  0.23087362  0.89008928    -0.63400
H1523       H  0.70720670  0.23572409  0.87100696     0.17300
C1524       C  0.69521202  0.25899917  0.85639546     0.29500
C1525       C  0.69231813  0.25953733  0.84604263    -0.24300
C1526       C  0.68927808  0.25073708  0.84056330    -0.23600
C1527       C  0.68931845  0.24124792  0.84576013     0.41000
C1528       C  0.69180894  0.24078898  0.85623388    -0.26100
O1529       O  0.69878958  0.26767522  0.86112426    -0.58000
H1530       H  0.69280298  0.26686996  0.84219848     0.16600
O1531       O  0.68685718  0.23235519  0.84073614    -0.59400
H1532       H  0.69146023  0.23345571  0.86009349     0.15100
H1533       H  0.70577915  0.22520878  0.89077693     0.46900
H1534       H  0.70634616  0.26699509  0.86109465     0.42300
H1535       H  0.69351757  0.22925889  0.83880263     0.45700
H1536       H  0.68923356  0.26946408  0.87917131     0.37200
C1537       C  0.70526663  0.24213303  0.94999534    -0.27000
C1538       C  0.71363629  0.23570556  0.95206586     0.02600
C1539       C  0.71930756  0.23181028  0.94370226     0.30700
C1540       C  0.71611441  0.23376114  0.93358087    -0.18800
C1541       C  0.70738336  0.23972145  0.93162903    -0.28200
C1542       C  0.70224256  0.24425411  0.93994798     0.44700
C1543       C  0.71552015  0.23232611  0.96286693     0.05900
O1544       O  0.72772376  0.22574842  0.94532664    -0.56700
H1545       H  0.72013436  0.23014124  0.92730722     0.18800
O1546       O  0.69386425  0.25037819  0.93835084    -0.63400
H1547       H  0.70064823  0.24511268  0.95618657     0.17300
C1548       C  0.71513739  0.23930550  0.97113416     0.29500
C1549       C  0.71529037  0.23572400  0.98127472    -0.24300
C1550       C  0.71597804  0.22520697  0.98345493    -0.23600
C1551       C  0.71667768  0.21825851  0.97520548     0.41000
C1552       C  0.71646742  0.22182518  0.96506450    -0.26100
O1553       O  0.71473760  0.24966360  0.96936648    -0.58000
H1554       H  0.71457280  0.24123017  0.98743145     0.16600
O1555       O  0.71769307  0.20794940  0.97697323    -0.59400
H1556       H  0.71661772  0.21627494  0.95889705     0.15100
H1557       H  0.69666343  0.25737937  0.93745592     0.46900
H1558       H  0.70795837  0.25193859  0.97192728     0.42300
H1559       H  0.71098879  0.20491099  0.97508642     0.45700
H1560       H  0.73360474  0.23053011  0.94543944     0.37200
C1561       C  0.72923707  0.26091580  0.91261666    -0.27000
C1562       C  0.73741503  0.25441275  0.91000606     0.02600
C1563       C  0.73535229  0.24402690  0.90784402     0.30700
C1564       C  0.72531551  0.24028059  0.90845891    -0.18800
C1565       C  0.71723436  0.24677525  0.91117562    -0.28200
C1566       C  0.71921708  0.25715381  0.91319533     0.44700
C1567       C  0.74804530  0.25852762  0.90981679     0.05900
O1568       O  0.74309626  0.23748311  0.90514353    -0.56700
H1569       H  0.72383003  0.23225972  0.90695626     0.18800
O1570       O  0.71143595  0.26358925  0.91605135    -0.63400
H1571       H  0.73066328  0.26889463  0.91440436     0.17300
C1572       C  0.75051106  0.26719664  0.90388892     0.29500
C1573       C  0.76029147  0.27154061  0.90452737    -0.24300
C1574       C  0.76782411  0.26730442  0.91093287    -0.23600
C1575       C  0.76557458  0.25828108  0.91637220     0.41000
C1576       C  0.75572619  0.25401682  0.91588162    -0.26100
O1577       O  0.74337062  0.27156185  0.89753495    -0.58000
H1578       H  0.76192503  0.27842867  0.90022894     0.16600
O1579       O  0.77293883  0.25360489  0.92221062    -0.59400
H1580       H  0.75402621  0.24728397  0.92041001     0.15100
H1581       H  0.70775642  0.26526635  0.90961730     0.46900
H1582       H  0.74341050  0.26727983  0.89124957     0.42300
H1583       H  0.77641387  0.24876691  0.91749022     0.45700
H1584       H  0.74313865  0.23750088  0.89754934     0.37200
C1585       C  0.35055541  0.20092931  0.75847538    -0.27000
C1586       C  0.35537294  0.20552012  0.75005261     0.02600
C1587       C  0.34980841  0.20685667  0.74090878     0.30700
C1588       C  0.33950385  0.20393387  0.74041010    -0.18800
C1589       C  0.33453472  0.19974066  0.74899238    -0.28200
C1590       C  0.34025651  0.19804914  0.75801081     0.44700
C1591       C  0.36622411  0.20874833  0.75096080     0.05900
O1592       O  0.35427067  0.21130168  0.73252219    -0.56700
H1593       H  0.33528638  0.20536286  0.73340299     0.18800
O1594       O  0.33584638  0.19372577  0.76648527    -0.63400
H1595       H  0.35480673  0.19960970  0.76548643     0.17300
C1596       C  0.36944617  0.21519144  0.75903058     0.29500
C1597       C  0.37988663  0.21693943  0.76069586    -0.24300
C1598       C  0.38720640  0.21230196  0.75439875    -0.23600
C1599       C  0.38399218  0.20642716  0.74594654     0.41000
C1600       C  0.37355194  0.20475730  0.74420992    -0.26100
O1601       O  0.36246367  0.21943801  0.76560633    -0.58000
H1602       H  0.38228322  0.22138302  0.76729202     0.16600
O1603       O  0.39104959  0.20207873  0.73950743    -0.59400
H1604       H  0.37121895  0.19986476  0.73791898     0.15100
H1605       H  0.33664020  0.18622959  0.76553005     0.46900
H1606       H  0.36004785  0.22574725  0.76213885     0.42300
H1607       H  0.39155949  0.19482113  0.74165898     0.45700
H1608       H  0.35335087  0.21878219  0.73350579     0.37200
C1609       C  0.14043125  0.30651812  0.74566630    -0.27000
C1610       C  0.13521367  0.30536443  0.75499008     0.02600
C1611       C  0.14048702  0.30778662  0.76414181     0.30700
C1612       C  0.15075570  0.31097204  0.76386503    -0.18800
C1613       C  0.15599148  0.31209836  0.75452651    -0.28200
C1614       C  0.15059603  0.30995312  0.74535340     0.44700
C1615       C  0.12419763  0.30209826  0.75504587     0.05900
O1616       O  0.13566642  0.30717758  0.77343535    -0.56700
H1617       H  0.15463930  0.31252487  0.77103647     0.18800
O1618       O  0.15516548  0.31110058  0.73597915    -0.63400
H1619       H  0.13664816  0.30464548  0.73851859     0.17300
C1620       C  0.11699980  0.30670047  0.74839269     0.29500
C1621       C  0.10658424  0.30438574  0.74925321    -0.24300
C1622       C  0.10301465  0.29760308  0.75676004    -0.23600
C1623       C  0.11015483  0.29258056  0.76307026     0.41000
C1624       C  0.12065484  0.29474921  0.76211867    -0.26100
O1625       O  0.11993130  0.31402746  0.74147642    -0.58000
H1626       H  0.10115462  0.30851013  0.74451246     0.16600
O1627       O  0.10689306  0.28632939  0.77083468    -0.59400
H1628       H  0.12599941  0.29096450  0.76721170     0.15100
H1629       H  0.15731330  0.30411312  0.73392091     0.46900
H1630       H  0.11968934  0.32059464  0.74528959     0.42300
H1631       H  0.10619657  0.27945736  0.76768869     0.45700
H1632       H  0.13227686  0.31391337  0.77435882     0.37200
C1633       C  0.25646224  0.20161259  0.75434181    -0.27000
C1634       C  0.25152400  0.19789033  0.74553352     0.02600
C1635       C  0.25746844  0.19445788  0.73722270     0.30700
C1636       C  0.26813652  0.19466479  0.73786646    -0.18800
C1637       C  0.27307875  0.19816258  0.74677671    -0.28200
C1638       C  0.26712564  0.20175074  0.75502400     0.44700
C1639       C  0.24019245  0.19762279  0.74515565     0.05900
O1640       O  0.25294678  0.19074084  0.72848680    -0.56700
H1641       H  0.27254916  0.19188372  0.73142410     0.18800
O1642       O  0.27161733  0.20550048  0.76375847    -0.63400
H1643       H  0.25202363  0.20451033  0.76071409     0.17300
C1644       C  0.23453392  0.19335802  0.75326589     0.29500
C1645       C  0.22386216  0.19366400  0.75305875    -0.24300
C1646       C  0.21860290  0.19792034  0.74468983    -0.23600
C1647       C  0.22426256  0.20187603  0.73640109     0.41000
C1648       C  0.23495790  0.20180047  0.73673548    -0.26100
O1649       O  0.23936204  0.18879654  0.76141213    -0.58000
H1650       H  0.21969048  0.19042033  0.75943792     0.16600
O1651       O  0.21945771  0.20596300  0.72799461    -0.59400
H1652       H  0.23916967  0.20518032  0.73045662     0.15100
H1653       H  0.27256510  0.21293140  0.76247650     0.46900
H1654       H  0.24018483  0.18151246  0.75940461     0.42300
H1655       H  0.21854311  0.21332403  0.72960416     0.45700
H1656       H  0.25130025  0.18349968  0.73001150     0.37200
C1657       C  0.18435195  0.24634553  0.74007269    -0.27000
C1658       C  0.18809486  0.25119052  0.74892357     0.02600
C1659       C  0.19192477  0.24508290  0.75697928     0.30700
C1660       C  0.19182492  0.23437498  0.75616429    -0.18800
C1661       C  0.18811576  0.22951772  0.74728900    -0.28200
C1662       C  0.18436245  0.23565173  0.73919370     0.44700
C1663       C  0.18772842  0.26257111  0.74978455     0.05900
O1664       O  0.19586387  0.24949670  0.76567171    -0.56700
H1665       H  0.19479756  0.22986386  0.76246446     0.18800
O1666       O  0.18051369  0.23130802  0.73042663    -0.63400
H1667       H  0.18120604  0.25086563  0.73386582     0.17300
C1668       C  0.19155878  0.26892835  0.74195734     0.29500
C1669       C  0.19099885  0.27961535  0.74292854    -0.24300
C1670       C  0.18676904  0.28418307  0.75169974    -0.23600
C1671       C  0.18301892  0.27781771  0.75956461     0.41000
C1672       C  0.18339020  0.26714210  0.75849832    -0.26100
O1673       O  0.19632799  0.26477080  0.73357393    -0.58000
H1674       H  0.19410977  0.28434479  0.73687642     0.16600
O1675       O  0.17866984  0.28192952  0.76818735    -0.59400
H1676       H  0.18022006  0.26240634  0.76451225     0.15100
H1677       H  0.17332294  0.22954392  0.73206071     0.46900
H1678       H  0.19165332  0.26605156  0.72772153     0.42300
H1679       H  0.18415585  0.28179776  0.77345612     0.45700
H1680       H  0.20295180  0.25148569  0.76386693     0.37200
C1681       C  0.14166053  0.20687210  0.75501310    -0.27000
C1682       C  0.13586305  0.20559831  0.74604244     0.02600
C1683       C  0.14077099  0.20207647  0.73710815     0.30700
C1684       C  0.15129080  0.20003343  0.73720682    -0.18800
C1685       C  0.15711807  0.20124909  0.74619411    -0.28200
C1686       C  0.15215251  0.20468124  0.75517451     0.44700
C1687       C  0.12464685  0.20753597  0.74619600     0.05900
O1688       O  0.13533569  0.20046577  0.72825492    -0.56700
H1689       H  0.15488323  0.19742180  0.73020766     0.18800
O1690       O  0.15752144  0.20634745  0.76405741    -0.63400
H1691       H  0.13803640  0.20964286  0.76193709     0.17300
C1692       C  0.11837911  0.20258389  0.75341432     0.29500
C1693       C  0.10777058  0.20380785  0.75300438    -0.24300
C1694       C  0.10315337  0.20980024  0.74536339    -0.23600
C1695       C  0.10938708  0.21501557  0.73831429     0.41000
C1696       C  0.12006820  0.21394226  0.73882593    -0.26100
O1697       O  0.12249404  0.19605285  0.76054475    -0.58000
H1698       H  0.10306024  0.19956767  0.75834166     0.16600
O1699       O  0.10512021  0.22061142  0.73051290    -0.59400
H1700       H  0.12477001  0.21783698  0.73323131     0.15100
H1701       H  0.15670347  0.19997551  0.76810088     0.46900
H1702       H  0.12259425  0.18923124  0.75717204     0.42300
H1703       H  0.10422278  0.21569509  0.72478188     0.45700
H1704       H  0.13242580  0.19348980  0.72894415     0.37200
C1705       C  0.25488838  0.30849585  0.74070828    -0.27000
C1706       C  0.25046320  0.31282602  0.74949860     0.02600
C1707       C  0.25686847  0.31721491  0.75699036     0.30700
C1708       C  0.26747861  0.31733071  0.75558256    -0.18800
C1709       C  0.27191620  0.31316791  0.74670257    -0.28200
C1710       C  0.26550142  0.30862577  0.73927735     0.44700
C1711       C  0.23915538  0.31313397  0.75055449     0.05900
O1712       O  0.25282360  0.32160827  0.76562481    -0.56700
H1713       H  0.27223468  0.32087332  0.76139483     0.18800
O1714       O  0.26949941  0.30421175  0.73063214    -0.63400
H1715       H  0.25007866  0.30498252  0.73492185     0.17300
C1716       C  0.23306784  0.31757010  0.74284143     0.29500
C1717       C  0.22244303  0.31792192  0.74390352    -0.24300
C1718       C  0.21762703  0.31402924  0.75268696    -0.23600
C1719       C  0.22372404  0.30956485  0.76043761     0.41000
C1720       C  0.23439441  0.30915796  0.75933217    -0.26100
O1721       O  0.23745321  0.32174530  0.73427700    -0.58000
H1722       H  0.21796614  0.32141392  0.73784779     0.16600
O1723       O  0.21936973  0.30546773  0.76905497    -0.59400
H1724       H  0.23896363  0.30564174  0.76530562     0.15100
H1725       H  0.27090725  0.29699044  0.73254797     0.46900
H1726       H  0.23849295  0.32908162  0.73595813     0.42300
H1727       H  0.21744319  0.29837442  0.76712701     0.45700
H1728       H  0.25126546  0.32878149  0.76367592     0.37200
C1729       C  0.30652898  0.26729532  0.75427553    -0.27000
C1730       C  0.30298104  0.26161960  0.74586379     0.02600
C1731       C  0.29951965  0.26682624  0.73708133     0.30700
C1732       C  0.29965608  0.27754961  0.73680570    -0.18800
C1733       C  0.30329290  0.28328551  0.74518212    -0.28200
C1734       C  0.30682332  0.27802507  0.75394956     0.44700
C1735       C  0.30314997  0.25026802  0.74625684     0.05900
O1736       O  0.29561340  0.26149119  0.72889943    -0.56700
H1737       H  0.29679851  0.28137386  0.73001667     0.18800
O1738       O  0.31070170  0.28325852  0.76220627    -0.63400
H1739       H  0.30929110  0.26337486  0.76105268     0.17300
C1740       C  0.30885045  0.24457064  0.73909816     0.29500
C1741       C  0.30883130  0.23385885  0.73947399    -0.24300
C1742       C  0.30349035  0.22864315  0.74718164    -0.23600
C1743       C  0.29796290  0.23436037  0.75450273     0.41000
C1744       C  0.29780794  0.24508398  0.75398382    -0.26100
O1745       O  0.31467206  0.24940693  0.73184513    -0.58000
H1746       H  0.31324206  0.22961902  0.73387760     0.16600
O1747       O  0.29259785  0.22955801  0.76212853    -0.59400
H1748       H  0.29345225  0.24937043  0.75959051     0.15100
H1749       H  0.31817751  0.28293100  0.76143722     0.46900
H1750       H  0.32095601  0.25163044  0.73551223     0.42300
H1751       H  0.28573271  0.22821484  0.75917176     0.45700
H1752       H  0.30075154  0.26222526  0.72335396     0.37200
C1753       C  0.34867677  0.30371425  0.74688819    -0.27000
C1754       C  0.35402582  0.30668561  0.73806367     0.02600
C1755       C  0.34882508  0.31264283  0.73063373     0.30700
C1756       C  0.33846768  0.31514485  0.73193638    -0.18800
C1757       C  0.33316419  0.31213980  0.74076464    -0.28200
C1758       C  0.33843748  0.30649096  0.74833622     0.44700
C1759       C  0.36492209  0.30345082  0.73663767     0.05900
O1760       O  0.35376513  0.31607827  0.72204380    -0.56700
H1761       H  0.33457374  0.31947533  0.72602071     0.18800
O1762       O  0.33354497  0.30324334  0.75702721    -0.63400
H1763       H  0.35234813  0.29896341  0.75261158     0.17300
C1764       C  0.37216811  0.30408622  0.74469726     0.29500
C1765       C  0.38243832  0.30149671  0.74297007    -0.24300
C1766       C  0.38574635  0.29856979  0.73320964    -0.23600
C1767       C  0.37855073  0.29773431  0.72522443     0.41000
C1768       C  0.36821712  0.29985088  0.72703902    -0.26100
O1769       O  0.36944309  0.30771901  0.75416394    -0.58000
H1770       H  0.38795982  0.30244451  0.74910069     0.16600
O1771       O  0.38159199  0.29493703  0.71556789    -0.59400
H1772       H  0.36281255  0.29892601  0.72080985     0.15100
H1773       H  0.33068343  0.29645022  0.75526264     0.46900
H1774       H  0.36960131  0.31527968  0.75353643     0.42300
H1775       H  0.38262750  0.30145881  0.71183864     0.45700
H1776       H  0.35719831  0.32249934  0.72416716     0.37200
C1777       C  0.19662892  0.38370429  0.76635341    -0.27000
C1778       C  0.19900048  0.37797166  0.75755822     0.02600
C1779       C  0.20325958  0.38317856  0.74906097     0.30700
C1780       C  0.20438244  0.39391301  0.74922192    -0.18800
C1781       C  0.20135222  0.39962958  0.75780016    -0.28200
C1782       C  0.19774355  0.39439017  0.76649812     0.44700
C1783       C  0.19626509  0.36679841  0.75710400     0.05900
O1784       O  0.20599990  0.37790622  0.74040218    -0.56700
H1785       H  0.20706741  0.39781835  0.74242303     0.18800
O1786       O  0.19499832  0.39973791  0.77512078    -0.63400
H1787       H  0.19334652  0.37997874  0.77298103     0.17300
C1788       C  0.19860050  0.36001284  0.76520859     0.29500
C1789       C  0.19546275  0.34971150  0.76477551    -0.24300
C1790       C  0.19011214  0.34582439  0.75624178    -0.23600
C1791       C  0.18771771  0.35263236  0.74818243     0.41000
C1792       C  0.19073295  0.36295495  0.74868123    -0.26100
O1793       O  0.20412792  0.36330241  0.77352443    -0.58000
H1794       H  0.19754341  0.34466284  0.77102365     0.16600
O1795       O  0.18240929  0.34930820  0.73974444    -0.59400
H1796       H  0.18858703  0.36802468  0.74247534     0.15100
H1797       H  0.18742545  0.39992194  0.77504071     0.46900
H1798       H  0.21138042  0.36199922  0.77173345     0.42300
H1799       H  0.17509639  0.35029964  0.74148670     0.45700
H1800       H  0.21274262  0.37483641  0.74200478     0.37200
C1801       C  0.29332871  0.38237113  0.73094555    -0.27000
C1802       C  0.28946431  0.37662796  0.73914657     0.02600
C1803       C  0.28380070  0.38175262  0.74681277     0.30700
C1804       C  0.28299007  0.39249958  0.74672635    -0.18800
C1805       C  0.28756408  0.39824577  0.73890344    -0.28200
C1806       C  0.29233220  0.39304132  0.73073831     0.44700
C1807       C  0.29212598  0.36552374  0.73997985     0.05900
O1808       O  0.27932859  0.37635875  0.75461039    -0.56700
H1809       H  0.27927818  0.39635010  0.75306011     0.18800
O1810       O  0.29625074  0.39840375  0.72259829    -0.63400
H1811       H  0.29762697  0.37866218  0.72490759     0.17300
C1812       C  0.29128253  0.35886424  0.73151057     0.29500
C1813       C  0.29459056  0.34868252  0.73227795    -0.24300
C1814       C  0.29862892  0.34477541  0.74149015    -0.23600
C1815       C  0.29941667  0.35143470  0.74999194     0.41000
C1816       C  0.29624372  0.36167627  0.74916524    -0.26100
O1817       O  0.28710350  0.36217776  0.72245434    -0.58000
H1818       H  0.29371856  0.34375786  0.72565204     0.16600
O1819       O  0.30317502  0.34803947  0.75919678    -0.59400
H1820       H  0.29716733  0.36668418  0.75572146     0.15100
H1821       H  0.30377719  0.39775069  0.72315786     0.46900
H1822       H  0.27967495  0.36078541  0.72305363     0.42300
H1823       H  0.31064670  0.34927028  0.75888231     0.45700
H1824       H  0.27254244  0.37428005  0.75190852     0.37200
C1825       C  0.25661750  0.41914065  0.75510419    -0.27000
C1826       C  0.25017957  0.41412131  0.74811508     0.02600
C1827       C  0.25450549  0.40943981  0.73940053     0.30700
C1828       C  0.26507306  0.41012761  0.73762312    -0.18800
C1829       C  0.27143893  0.41546504  0.74445791    -0.28200
C1830       C  0.26714662  0.41976741  0.75337319     0.44700
C1831       C  0.23893762  0.41441296  0.74972969     0.05900
O1832       O  0.24844184  0.40432072  0.73251195    -0.56700
H1833       H  0.26827474  0.40672985  0.73077469     0.18800
O1834       O  0.27317637  0.42473203  0.76040331    -0.63400
H1835       H  0.25342645  0.42281260  0.76182053     0.17300
C1836       C  0.23448860  0.41060027  0.75878500     0.29500
C1837       C  0.22393042  0.41164185  0.76042666    -0.24300
C1838       C  0.21774430  0.41669070  0.75324259    -0.23600
C1839       C  0.22216898  0.42040287  0.74415808     0.41000
C1840       C  0.23266802  0.41922229  0.74243421    -0.26100
O1841       O  0.24038860  0.40570878  0.76597754    -0.58000
H1842       H  0.22059043  0.40874032  0.76742806     0.16600
O1843       O  0.21628170  0.42527348  0.73694932    -0.59400
H1844       H  0.23597715  0.42229773  0.73548748     0.15100
H1845       H  0.27685815  0.41924101  0.76412790     0.46900
H1846       H  0.24122177  0.41070725  0.77164002     0.42300
H1847       H  0.21320918  0.41971513  0.73279416     0.45700
H1848       H  0.24854083  0.39707548  0.73479013     0.37200
C1849       C  0.27896686  0.47638639  0.74623719    -0.27000
C1850       C  0.28008772  0.46888810  0.73856641     0.02600
C1851       C  0.28240476  0.47212177  0.72852452     0.30700
C1852       C  0.28374214  0.48254598  0.72636110    -0.18800
C1853       C  0.28287488  0.49001475  0.73405292    -0.28200
C1854       C  0.28042039  0.48685256  0.74408256     0.44700
C1855       C  0.27997741  0.45772458  0.74119080     0.05900
O1856       O  0.28378157  0.46512319  0.72080587    -0.56700
H1857       H  0.28566329  0.48479757  0.71861618     0.18800
O1858       O  0.28021459  0.49380738  0.75196458    -0.63400
H1859       H  0.27722204  0.47411062  0.75401182     0.17300
C1860       C  0.28637285  0.45386195  0.74900436     0.29500
C1861       C  0.28796965  0.44329604  0.74991815    -0.24300
C1862       C  0.28318272  0.43635012  0.74325442    -0.23600
C1863       C  0.27606853  0.44009208  0.73605216     0.41000
C1864       C  0.27446671  0.45070279  0.73510475    -0.26100
O1865       O  0.29192496  0.46036105  0.75511698    -0.58000
H1866       H  0.29349744  0.44054235  0.75547040     0.16600
O1867       O  0.27124116  0.43355606  0.72938267    -0.59400
H1868       H  0.26933807  0.45347841  0.72919795     0.15100
H1869       H  0.27310830  0.49368409  0.75461243     0.46900
H1870       H  0.28841936  0.46026556  0.76184511     0.42300
H1871       H  0.27618887  0.43238309  0.72376121     0.45700
H1872       H  0.29118847  0.46350888  0.72088489     0.37200
C1873       C  0.20913794  0.47233240  0.77160955    -0.27000
C1874       C  0.21139874  0.46977833  0.76140175     0.02600
C1875       C  0.21253586  0.47777712  0.75420943     0.30700
C1876       C  0.21107792  0.48801391  0.75720595    -0.18800
C1877       C  0.20842333  0.49046135  0.76733016    -0.28200
C1878       C  0.20757555  0.48253343  0.77456237     0.44700
C1879       C  0.21113996  0.45877462  0.75824712     0.05900
O1880       O  0.21475000  0.47565510  0.74416828    -0.56700
H1881       H  0.21164220  0.49401442  0.75151222     0.18800
O1882       O  0.20522574  0.48469686  0.78456753    -0.63400
H1883       H  0.20806230  0.46635111  0.77724786     0.17300
C1884       C  0.21622784  0.45109560  0.76393853     0.29500
C1885       C  0.21389591  0.44069247  0.76231257    -0.24300
C1886       C  0.20652718  0.43779531  0.75502471    -0.23600
C1887       C  0.20209374  0.44541193  0.74879211     0.41000
C1888       C  0.20446475  0.45576358  0.75036595    -0.26100
O1889       O  0.22302325  0.45372145  0.77151871    -0.58000
H1890       H  0.21732545  0.43496171  0.76723932     0.16600
O1891       O  0.19512950  0.44279886  0.74135417    -0.59400
H1892       H  0.20044788  0.46148300  0.74589228     0.15100
H1893       H  0.19787749  0.48298060  0.78529630     0.46900
H1894       H  0.22988435  0.45234460  0.76860737     0.42300
H1895       H  0.18842247  0.44527338  0.74388836     0.45700
H1896       H  0.22229745  0.47603007  0.74370047     0.37200
C1897       C  0.23286818  0.51414542  0.74986630    -0.27000
C1898       C  0.24107388  0.50924727  0.75474693     0.02600
C1899       C  0.23962185  0.50464883  0.76437110     0.30700
C1900       C  0.22991459  0.50473857  0.76886562    -0.18800
C1901       C  0.22170699  0.50961289  0.76394874    -0.28200
C1902       C  0.22323944  0.51441849  0.75445614     0.44700
C1903       C  0.25104939  0.50886414  0.74957037     0.05900
O1904       O  0.24762638  0.50007382  0.76940788    -0.56700
H1905       H  0.22876252  0.50108587  0.77621645     0.18800
O1906       O  0.21531721  0.51927924  0.74957189    -0.63400
H1907       H  0.23395109  0.51774610  0.74247367     0.17300
C1908       C  0.25244537  0.50258010  0.74093604     0.29500
C1909       C  0.26174703  0.50273851  0.73570386    -0.24300
C1910       C  0.26969243  0.50917427  0.73895993    -0.23600
C1911       C  0.26836100  0.51531150  0.74772770     0.41000
C1912       C  0.25905364  0.51514521  0.75297310    -0.26100
O1913       O  0.24481002  0.49613791  0.73769310    -0.58000
H1914       H  0.26275909  0.49791428  0.72903055     0.16600
O1915       O  0.27615067  0.52138857  0.75127766    -0.59400
H1916       H  0.25803182  0.51998155  0.75964112     0.15100
H1917       H  0.21197339  0.51391863  0.74536580     0.46900
H1918       H  0.24131878  0.49983984  0.73206612     0.42300
H1919       H  0.28085224  0.51667829  0.75495426     0.45700
H1920       H  0.24778589  0.49293922  0.76683054     0.37200
C1921       C  0.22888989  0.56352855  0.77495042    -0.27000
C1922       C  0.21873862  0.56005739  0.77576016     0.02600
C1923       C  0.21128250  0.56672063  0.77977090     0.30700
C1924       C  0.21409232  0.57644842  0.78331294    -0.18800
C1925       C  0.22428685  0.57977703  0.78294706    -0.28200
C1926       C  0.23170161  0.57329758  0.77853566     0.44700
C1927       C  0.21621514  0.54912046  0.77374019     0.05900
O1928       O  0.20144077  0.56340183  0.78123713    -0.56700
H1929       H  0.20833608  0.58123753  0.78687600     0.18800
O1930       O  0.24180048  0.57609908  0.77835409    -0.63400
H1931       H  0.23473681  0.55845561  0.77197754     0.17300
C1932       C  0.20833571  0.54626869  0.76691563     0.29500
C1933       C  0.20536439  0.53595645  0.76613515    -0.24300
C1934       C  0.21017795  0.52840010  0.77205724    -0.23600
C1935       C  0.21819465  0.53118579  0.77868399     0.41000
C1936       C  0.22116999  0.54147674  0.77947659    -0.26100
O1937       O  0.20364122  0.55349472  0.76088570    -0.58000
H1938       H  0.19921180  0.53386193  0.76096866     0.16600
O1939       O  0.22263625  0.52401385  0.78495780    -0.59400
H1940       H  0.22709601  0.54355491  0.78490873     0.15100
H1941       H  0.24472483  0.57351777  0.78487436     0.46900
H1942       H  0.19637908  0.55359378  0.76305217     0.42300
H1943       H  0.22965777  0.52307946  0.78231294     0.45700
H1944       H  0.19717602  0.56752534  0.77647424     0.37200
C1945       C  0.27251229  0.56792053  0.73070392    -0.27000
C1946       C  0.27163939  0.55991455  0.72348224     0.02600
C1947       C  0.26916491  0.56249133  0.71328500     0.30700
C1948       C  0.26779554  0.57273649  0.71045481    -0.18800
C1949       C  0.26919883  0.58077951  0.71748353    -0.28200
C1950       C  0.27151906  0.57826997  0.72774952     0.44700
C1951       C  0.27409347  0.54902219  0.72628700     0.05900
O1952       O  0.26862956  0.55509957  0.70583316    -0.56700
H1953       H  0.26610224  0.57443558  0.70250708     0.18800
O1954       O  0.27339818  0.58579447  0.73483594    -0.63400
H1955       H  0.27433324  0.56617375  0.73860547     0.17300
C1956       C  0.28336873  0.54647994  0.73123076     0.29500
C1957       C  0.28625480  0.53617974  0.73241783    -0.24300
C1958       C  0.27993971  0.52818294  0.72899307    -0.23600
C1959       C  0.27046885  0.53064874  0.72445362     0.41000
C1960       C  0.26762384  0.54097149  0.72313378    -0.26100
O1961       O  0.29003341  0.55400119  0.73427299    -0.58000
H1962       H  0.29360314  0.53442480  0.73584900     0.16600
O1963       O  0.26432921  0.52307284  0.72054156    -0.59400
H1964       H  0.26044319  0.54268812  0.71935088     0.15100
H1965       H  0.28073320  0.58752835  0.73402213     0.46900
H1966       H  0.28928048  0.55441781  0.74182400     0.42300
H1967       H  0.25826175  0.52287326  0.72508767     0.45700
H1968       H  0.27573928  0.55435851  0.70326147     0.37200
C1969       C  0.25697918  0.60848940  0.74316213    -0.27000
C1970       C  0.24908325  0.60151908  0.74525398     0.02600
C1971       C  0.24599983  0.59461952  0.73751605     0.30700
C1972       C  0.25104080  0.59452802  0.72805855    -0.18800
C1973       C  0.25925209  0.60116511  0.72617717    -0.28200
C1974       C  0.26210635  0.60830116  0.73375602     0.44700
C1975       C  0.24469272  0.60098494  0.75574219     0.05900
O1976       O  0.23836176  0.58764296  0.73925130    -0.56700
H1977       H  0.24877073  0.58903036  0.72226971     0.18800
O1978       O  0.27046241  0.61448801  0.73236532    -0.63400
H1979       H  0.25940722  0.61390286  0.74897074     0.17300
C1980       C  0.25114134  0.59997702  0.76437181     0.29500
C1981       C  0.24693101  0.59909089  0.77417427    -0.24300
C1982       C  0.23632873  0.59901182  0.77553936    -0.23600
C1983       C  0.22985452  0.60009042  0.76700362     0.41000
C1984       C  0.23403941  0.60117080  0.75718408    -0.26100
O1985       O  0.26154342  0.59922795  0.76322771    -0.58000
H1986       H  0.25193248  0.59812533  0.78072870     0.16600
O1987       O  0.21945173  0.60038052  0.76826372    -0.59400
H1988       H  0.22896149  0.60210050  0.75068236     0.15100
H1989       H  0.26778092  0.62159404  0.73240465     0.46900
H1990       H  0.26433439  0.60579927  0.76582854     0.42300
H1991       H  0.21702704  0.59341726  0.76646881     0.45700
H1992       H  0.24168132  0.58193288  0.74299813     0.37200
C1993       C  0.24749856  0.65449465  0.70448398    -0.27000
C1994       C  0.25602834  0.64924573  0.70057028     0.02600
C1995       C  0.26219683  0.65419515  0.69321708     0.30700
C1996       C  0.26014078  0.66436893  0.69038212    -0.18800
C1997       C  0.25188262  0.66975724  0.69462851    -0.28200
C1998       C  0.24543144  0.66466361  0.70161198     0.44700
C1999       C  0.25856074  0.63873136  0.70435044     0.05900
O2000       O  0.27004699  0.64901842  0.68853145    -0.56700
H2001       H  0.26511572  0.66810759  0.68491485     0.18800
O2002       O  0.23739007  0.66970523  0.70608258    -0.63400
H2003       H  0.24263331  0.65082384  0.71009013     0.17300
C2004       C  0.26841504  0.63640348  0.70811369     0.29500
C2005       C  0.27093304  0.62630526  0.71078855    -0.24300
C2006       C  0.26372044  0.61840204  0.71002340    -0.23600
C2007       C  0.25368007  0.62080318  0.70693446     0.41000
C2008       C  0.25115773  0.63090239  0.70411334    -0.26100
O2009       O  0.27556834  0.64400487  0.70936132    -0.58000
H2010       H  0.27869299  0.62455920  0.71314600     0.16600
O2011       O  0.24652209  0.61320674  0.70585223    -0.59400
H2012       H  0.24351542  0.63253644  0.70133584     0.15100
H2013       H  0.24027802  0.67291970  0.71234657     0.46900
H2014       H  0.28142583  0.64207430  0.70494353     0.42300
H2015       H  0.24279089  0.61308464  0.71244292     0.45700
H2016       H  0.27636688  0.65290714  0.69018925     0.37200
C2017       C  0.24001124  0.70671299  0.76062910    -0.27000
C2018       C  0.24820689  0.70228771  0.75528265     0.02600
C2019       C  0.25605572  0.69739725  0.76085469     0.30700
C2020       C  0.25554240  0.69684150  0.77154468    -0.18800
C2021       C  0.24715777  0.70092777  0.77687932    -0.28200
C2022       C  0.23942354  0.70604081  0.77131506     0.44700
C2023       C  0.24831282  0.70243076  0.74390538     0.05900
O2024       O  0.26412886  0.69287060  0.75591288    -0.56700
H2025       H  0.26160407  0.69293194  0.77564925     0.18800
O2026       O  0.23127078  0.71045546  0.77622164    -0.63400
H2027       H  0.23400709  0.71067673  0.75649029     0.17300
C2028       C  0.23983322  0.69891001  0.73823056     0.29500
C2029       C  0.24020785  0.69868700  0.72753116    -0.24300
C2030       C  0.24903629  0.70178987  0.72225908    -0.23600
C2031       C  0.25747942  0.70544914  0.72794485     0.41000
C2032       C  0.25705299  0.70576677  0.73865413    -0.26100
O2033       O  0.23121657  0.69542141  0.74307265    -0.58000
H2034       H  0.23361706  0.69584394  0.72336651     0.16600
O2035       O  0.26620105  0.70873465  0.72315159    -0.59400
H2036       H  0.26359559  0.70863021  0.74288050     0.15100
H2037       H  0.23356165  0.71747150  0.77800387     0.46900
H2038       H  0.23253080  0.68806105  0.74441884     0.42300
H2039       H  0.26512464  0.71615127  0.72192509     0.45700
H2040       H  0.26176001  0.68586400  0.75419755     0.37200
C2041       C  0.23854549  0.74608573  0.81118304    -0.27000
C2042       C  0.24718322  0.75122786  0.80746157     0.02600
C2043       C  0.25575272  0.74545726  0.80435053     0.30700
C2044       C  0.25558727  0.73474892  0.80499828    -0.18800
C2045       C  0.24685619  0.72957565  0.80851923    -0.28200
C2046       C  0.23830218  0.73538316  0.81167955     0.44700
C2047       C  0.24719680  0.76259461  0.80688789     0.05900
O2048       O  0.26424838  0.75019286  0.80043842    -0.56700
H2049       H  0.26221201  0.73047548  0.80243976     0.18800
O2050       O  0.22962487  0.73070579  0.81524370    -0.63400
H2051       H  0.23194803  0.75039616  0.81375260     0.17300
C2052       C  0.23925108  0.76798770  0.80192476     0.29500
C2053       C  0.23944004  0.77871883  0.80151852    -0.24300
C2054       C  0.24756387  0.78423509  0.80589821    -0.23600
C2055       C  0.25544052  0.77881822  0.81097207     0.41000
C2056       C  0.25521268  0.76812307  0.81141468    -0.26100
O2057       O  0.23131747  0.76284263  0.79734970    -0.58000
H2058       H  0.23330041  0.78272374  0.79762856     0.16600
O2059       O  0.26331553  0.78389536  0.81572924    -0.59400
H2060       H  0.26126896  0.76412798  0.81544687     0.15100
H2061       H  0.23075978  0.72984933  0.82270897     0.46900
H2062       H  0.23387535  0.76090205  0.79047226     0.42300
H2063       H  0.26057895  0.78595862  0.82251026     0.45700
H2064       H  0.26262634  0.75144240  0.79311587     0.37200
C2065       C  0.25253402  0.65117588  0.80045844    -0.27000
C2066       C  0.24287072  0.64666108  0.79913283     0.02600
C2067       C  0.23409653  0.65269486  0.80074279     0.30700
C2068       C  0.23503897  0.66310037  0.80329965    -0.18800
C2069       C  0.24468902  0.66778615  0.80433187    -0.28200
C2070       C  0.25350023  0.66161380  0.80302015     0.44700
C2071       C  0.24190121  0.63553187  0.79668424     0.05900
O2072       O  0.22455125  0.64834650  0.80028894    -0.56700
H2073       H  0.22811698  0.66751891  0.80441689     0.18800
O2074       O  0.26310830  0.66570171  0.80400131    -0.63400
H2075       H  0.25936956  0.64659786  0.79943069     0.17300
C2076       C  0.23677389  0.63210655  0.78779244     0.29500
C2077       C  0.23462728  0.62161614  0.78644587    -0.24300
C2078       C  0.23745215  0.61442848  0.79393922    -0.23600
C2079       C  0.24321636  0.61782151  0.80246131     0.41000
C2080       C  0.24540822  0.62825414  0.80375830    -0.26100
O2081       O  0.23378575  0.63899326  0.78043261    -0.58000
H2082       H  0.23019479  0.61923140  0.77984954     0.16600
O2083       O  0.24634742  0.61104640  0.80985831    -0.59400
H2084       H  0.24943701  0.63072712  0.81058747     0.15100
H2085       H  0.26504090  0.66454977  0.81126050     0.46900
H2086       H  0.22620218  0.63900379  0.78057620     0.42300
H2087       H  0.25239583  0.60754218  0.80693449     0.45700
H2088       H  0.22119040  0.65140794  0.79420546     0.37200
C2089       C  0.25616511  0.76968086  0.69321692    -0.27000
C2090       C  0.24767296  0.76424099  0.68948327     0.02600
C2091       C  0.23917085  0.76975159  0.68574960     0.30700
C2092       C  0.23920245  0.78046236  0.68592441    -0.18800
C2093       C  0.24772505  0.78590686  0.68959315    -0.28200
C2094       C  0.25627664  0.78039398  0.69323483     0.44700
C2095       C  0.24773877  0.75285387  0.68960957     0.05900
O2096       O  0.23082222  0.76475777  0.68179058    -0.56700
H2097       H  0.23257679  0.78451553  0.68300631     0.18800
O2098       O  0.26476136  0.78536735  0.69692324    -0.63400
H2099       H  0.26271618  0.76561121  0.69627411     0.17300
C2100       C  0.25618313  0.74728497  0.68587795     0.29500
C2101       C  0.25623032  0.73659309  0.68638472    -0.24300
C2102       C  0.24781848  0.73119515  0.69032051    -0.23600
C2103       C  0.23928319  0.73674583  0.69388102     0.41000
C2104       C  0.23934088  0.74747084  0.69360132    -0.26100
O2105       O  0.26439602  0.75220299  0.68160190    -0.58000
H2106       H  0.26284199  0.73250242  0.68351129     0.16600
O2107       O  0.23090523  0.73180629  0.69778774    -0.59400
H2108       H  0.23283576  0.75159772  0.69665319     0.15100
H2109       H  0.26379094  0.78570942  0.70444630     0.46900
H2110       H  0.26277369  0.75269540  0.67419454     0.42300
H2111       H  0.23223055  0.73124700  0.70524651     0.45700
H2112       H  0.23266182  0.76313487  0.67461036     0.37200
C2113       C  0.23905469  0.81233741  0.73673701    -0.27000
C2114       C  0.24683086  0.81764163  0.74196643     0.02600
C2115       C  0.25435143  0.82280639  0.73626217     0.30700
C2116       C  0.25416627  0.82246220  0.72555795    -0.18800
C2117       C  0.24646246  0.81711490  0.72029304    -0.28200
C2118       C  0.23884577  0.81201436  0.72598677     0.44700
C2119       C  0.24728083  0.81748750  0.75334392     0.05900
O2120       O  0.26192860  0.82825071  0.74108778    -0.56700
H2121       H  0.26004147  0.82650041  0.72134519     0.18800
O2122       O  0.23134784  0.80646367  0.72115367    -0.63400
H2123       H  0.23327278  0.80822256  0.74100578     0.17300
C2124       C  0.23890621  0.82066300  0.75930497     0.29500
C2125       C  0.23945446  0.82019429  0.77000960    -0.24300
C2126       C  0.24835427  0.81670428  0.77500892    -0.23600
C2127       C  0.25682152  0.81374660  0.76901166     0.41000
C2128       C  0.25621699  0.81412284  0.75830067    -0.26100
O2129       O  0.23017943  0.82432452  0.75474633    -0.58000
H2130       H  0.23288234  0.82265580  0.77440992     0.16600
O2131       O  0.26569058  0.81035053  0.77349304    -0.59400
H2132       H  0.26272883  0.81162869  0.75382816     0.15100
H2133       H  0.23396882  0.79932000  0.72095051     0.46900
H2134       H  0.23118582  0.83184369  0.75427141     0.42300
H2135       H  0.26489308  0.80281871  0.77403777     0.45700
H2136       H  0.25891422  0.83508101  0.74245741     0.37200
C2137       C  0.28738694  0.12934833  0.74904393    -0.27000
C2138       C  0.28933988  0.13697165  0.75640971     0.02600
C2139       C  0.28755708  0.13475679  0.76680937     0.30700
C2140       C  0.28462308  0.12487444  0.76976560    -0.18800
C2141       C  0.28331839  0.11706487  0.76248548    -0.28200
C2142       C  0.28440152  0.11943277  0.75202636     0.44700
C2143       C  0.29354335  0.14711022  0.75332476     0.05900
O2144       O  0.28866234  0.14223869  0.77412517    -0.56700
H2145       H  0.28377396  0.12318114  0.77784298     0.18800
O2146       O  0.28348662  0.11190248  0.74475609    -0.63400
H2147       H  0.28864767  0.13094959  0.74100655     0.17300
C2148       C  0.30288969  0.15069453  0.75740731     0.29500
C2149       C  0.30611044  0.16076235  0.75551958    -0.24300
C2150       C  0.30033344  0.16726736  0.74922740    -0.23600
C2151       C  0.29131499  0.16349348  0.74462820     0.41000
C2152       C  0.28799186  0.15347683  0.74667248    -0.26100
O2153       O  0.30882358  0.14446859  0.76343961    -0.58000
H2154       H  0.31304984  0.16355374  0.75911239     0.16600
O2155       O  0.28536514  0.16974314  0.73862510    -0.59400
H2156       H  0.28082937  0.15083675  0.74342470     0.15100
H2157       H  0.27663526  0.11293131  0.74166911     0.46900
H2158       H  0.31363795  0.14107980  0.75865000     0.42300
H2159       H  0.28077489  0.17338014  0.74346275     0.45700
H2160       H  0.29486179  0.14033688  0.77808712     0.37200
C2161       C  0.18957599  0.12825230  0.74311035    -0.27000
C2162       C  0.19686411  0.13534370  0.73968455     0.02600
C2163       C  0.20572856  0.13163232  0.73474011     0.30700
C2164       C  0.20679519  0.12109370  0.73265335    -0.18800
C2165       C  0.19911943  0.11411753  0.73544019    -0.28200
C2166       C  0.19065627  0.11776773  0.74106081     0.44700
C2167       C  0.19476818  0.14655394  0.74083901     0.05900
O2168       O  0.21340188  0.13825422  0.73200713    -0.56700
H2169       H  0.21337372  0.11849280  0.72835522     0.18800
O2170       O  0.18315390  0.11117479  0.74425432    -0.63400
H2171       H  0.18277645  0.13089867  0.74703476     0.17300
C2172       C  0.19473752  0.15312361  0.73227151     0.29500
C2173       C  0.19237250  0.16353990  0.73341374    -0.24300
C2174       C  0.18985211  0.16771749  0.74303311    -0.23600
C2175       C  0.18965372  0.16107746  0.75158400     0.41000
C2176       C  0.19202976  0.15062473  0.75042306    -0.26100
O2177       O  0.19683129  0.14942614  0.72266731    -0.58000
H2178       H  0.19260802  0.16838281  0.72668743     0.16600
O2179       O  0.18698499  0.16464717  0.76109022    -0.59400
H2180       H  0.19179251  0.14567758  0.75707551     0.15100
H2181       H  0.18544443  0.10873060  0.75106729     0.46900
H2182       H  0.19036202  0.14626767  0.72026140     0.42300
H2183       H  0.19355054  0.16569241  0.76477029     0.45700
H2184       H  0.21377678  0.13794833  0.72441932     0.37200
C2185       C  0.23559499  0.09937927  0.73283008    -0.27000
C2186       C  0.23684110  0.10004980  0.74351401     0.02600
C2187       C  0.22804013  0.10004233  0.74977718     0.30700
C2188       C  0.21829559  0.09934142  0.74535155    -0.18800
C2189       C  0.21714565  0.09834431  0.73472898    -0.28200
C2190       C  0.22585623  0.09844638  0.72845392     0.44700
C2191       C  0.24730309  0.10039427  0.74807360     0.05900
O2192       O  0.22887335  0.10040763  0.76024494    -0.56700
H2193       H  0.21160692  0.09923137  0.75022690     0.18800
O2194       O  0.22491004  0.09758747  0.71803029    -0.63400
H2195       H  0.24219866  0.09955768  0.72784793     0.17300
C2196       C  0.25484183  0.09321119  0.74520708     0.29500
C2197       C  0.26434581  0.09314767  0.75016248    -0.24300
C2198       C  0.26655011  0.10012329  0.75803077    -0.23600
C2199       C  0.25918589  0.10752925  0.76067712     0.41000
C2200       C  0.24969660  0.10769087  0.75564778    -0.26100
O2201       O  0.25275895  0.08578055  0.73806316    -0.58000
H2202       H  0.26996484  0.08744192  0.74802848     0.16600
O2203       O  0.26101516  0.11436222  0.76844331    -0.59400
H2204       H  0.24409527  0.11339590  0.75784507     0.15100
H2205       H  0.22312240  0.10456117  0.71561068     0.46900
H2206       H  0.25685937  0.08764555  0.73195582     0.42300
H2207       H  0.25852984  0.11093620  0.77474027     0.45700
H2208       H  0.23004813  0.09321557  0.76240084     0.37200
C2209       C  0.22767191  0.04787247  0.70598211    -0.27000
C2210       C  0.22193662  0.04931764  0.71495699     0.02600
C2211       C  0.21869186  0.04061387  0.72046717     0.30700
C2212       C  0.22082735  0.03073120  0.71673622    -0.18800
C2213       C  0.22616993  0.02933395  0.70751582    -0.28200
C2214       C  0.22973088  0.03801590  0.70222899     0.44700
C2215       C  0.21824835  0.05982248  0.71759114     0.05900
O2216       O  0.21266469  0.04168045  0.72898394    -0.56700
H2217       H  0.21783933  0.02416194  0.72080614     0.18800
O2218       O  0.23526059  0.03693264  0.69337675    -0.63400
H2219       H  0.23026726  0.05445133  0.70165600     0.17300
C2220       C  0.21986687  0.06435582  0.72727919     0.29500
C2221       C  0.21557253  0.07401824  0.72953344    -0.24300
C2222       C  0.20967393  0.07928766  0.72220454    -0.23600
C2223       C  0.20858385  0.07494068  0.71235948     0.41000
C2224       C  0.21276133  0.06532675  0.71016837    -0.26100
O2225       O  0.22581908  0.05951253  0.73446891    -0.58000
H2226       H  0.21655982  0.07718714  0.73713578     0.16600
O2227       O  0.20327802  0.07996679  0.70480803    -0.59400
H2228       H  0.21151015  0.06203999  0.70264393     0.15100
H2229       H  0.23049683  0.03881435  0.68776808     0.46900
H2230       H  0.22114807  0.05777399  0.74016987     0.42300
H2231       H  0.20827321  0.08477210  0.70173912     0.45700
H2232       H  0.21696082  0.03933560  0.73481260     0.37200
C2233       C  0.27164146  0.04286178  0.77849454    -0.27000
C2234       C  0.26371674  0.04956025  0.77560890     0.02600
C2235       C  0.25354887  0.04592472  0.77587599     0.30700
C2236       C  0.25148987  0.03582353  0.77908146    -0.18800
C2237       C  0.25943884  0.02922303  0.78207044    -0.28200
C2238       C  0.26957480  0.03283824  0.78171390     0.44700
C2239       C  0.26635171  0.06027595  0.77249997     0.05900
O2240       O  0.24563447  0.05205994  0.77268555    -0.56700
H2241       H  0.24363813  0.03325640  0.77946208     0.18800
O2242       O  0.27754478  0.02665587  0.78464368    -0.63400
H2243       H  0.27950311  0.04547971  0.77841602     0.17300
C2244       C  0.26207437  0.06889859  0.77745884     0.29500
C2245       C  0.26582341  0.07878269  0.77537761    -0.24300
C2246       C  0.27392182  0.08022991  0.76852124    -0.23600
C2247       C  0.27797824  0.07170815  0.76333952     0.41000
C2248       C  0.27411127  0.06187152  0.76522523    -0.26100
O2249       O  0.25499069  0.06765725  0.78508521    -0.58000
H2250       H  0.26284184  0.08525866  0.77962652     0.16600
O2251       O  0.28593078  0.07290147  0.75661445    -0.59400
H2252       H  0.27749889  0.05539093  0.76130346     0.15100
H2253       H  0.27926349  0.02258254  0.77847349     0.46900
H2254       H  0.24864216  0.07096329  0.78250403     0.42300
H2255       H  0.29220354  0.07166127  0.76071539     0.45700
H2256       H  0.24128662  0.05313380  0.77881498     0.37200
C2257       C  0.23245803  0.00405920  0.73594546    -0.27000
C2258       C  0.24090525  0.01003245  0.73883412     0.02600
C2259       C  0.24598173  0.01597389  0.73145582     0.30700
C2260       C  0.24250570  0.01600515  0.72133523    -0.18800
C2261       C  0.23405901  0.01006253  0.71844121    -0.28200
C2262       C  0.22904259  0.00402217  0.72578907     0.44700
C2263       C  0.24425541  0.01022724  0.74960819     0.05900
O2264       O  0.25428038  0.02183388  0.73410889    -0.56700
H2265       H  0.24640265  0.02064081  0.71568656     0.18800
O2266       O  0.22073887  0.99817996  0.72313030    -0.63400
H2267       H  0.22851454  0.99944884  0.74158806     0.17300
C2268       C  0.23791068  0.01440952  0.75722274     0.29500
C2269       C  0.24131170  0.01478781  0.76736027    -0.24300
C2270       C  0.25088746  0.01080869  0.77003975    -0.23600
C2271       C  0.25722400  0.00658232  0.76246813     0.41000
C2272       C  0.25391246  0.00635063  0.75227948    -0.26100
O2273       O  0.22847452  0.01831111  0.75477487    -0.58000
H2274       H  0.23633600  0.01784910  0.77322801     0.16600
O2275       O  0.26657932  0.00256419  0.76500486    -0.59400
H2276       H  0.25882759  0.00307865  0.74646203     0.15100
H2277       H  0.21491541  0.00303625  0.72277781     0.46900
H2278       H  0.22352270  0.01292969  0.75678874     0.42300
H2279       H  0.27135034  0.00847417  0.76494526     0.45700
H2280       H  0.25150866  0.02879475  0.73532835     0.37200
C2281       C  0.24374045  0.88227893  0.78758856    -0.27000
C2282       C  0.25075450  0.87824193  0.79476288     0.02600
C2283       C  0.25781917  0.88501988  0.79933739     0.30700
C2284       C  0.25750223  0.89552726  0.79709019    -0.18800
C2285       C  0.25009019  0.89966896  0.79043347    -0.28200
C2286       C  0.24330146  0.89288124  0.78550015     0.44700
C2287       C  0.25037093  0.86713117  0.79781732     0.05900
O2288       O  0.26468894  0.88157545  0.80650789    -0.56700
H2289       H  0.26270889  0.90059800  0.80110637     0.18800
O2290       O  0.23578551  0.89655631  0.77915644    -0.63400
H2291       H  0.23831745  0.87723288  0.78385336     0.17300
C2292       C  0.24113739  0.86244959  0.80088831     0.29500
C2293       C  0.24092849  0.85205412  0.80374490    -0.24300
C2294       C  0.24987086  0.84604193  0.80378316    -0.23600
C2295       C  0.25916518  0.85080619  0.80087906     0.41000
C2296       C  0.25933755  0.86118136  0.79796707    -0.26100
O2297       O  0.23223399  0.86798927  0.80121547    -0.58000
H2298       H  0.23367700  0.84867561  0.80587352     0.16600
O2299       O  0.26815142  0.84538364  0.80065185    -0.59400
H2300       H  0.26653270  0.86454217  0.79562425     0.15100
H2301       H  0.22978726  0.89771297  0.78364665     0.46900
H2302       H  0.23219120  0.87125635  0.80807485     0.42300
H2303       H  0.26888025  0.84304377  0.79345518     0.45700
H2304       H  0.26113837  0.88228470  0.81318726     0.37200
C2305       C  0.24184795  0.97749961  0.77745265    -0.27000
C2306       C  0.24935711  0.97014722  0.77986164     0.02600
C2307       C  0.25883829  0.97360728  0.78373870     0.30700
C2308       C  0.26050278  0.98407792  0.78551245    -0.18800
C2309       C  0.25287087  0.99138039  0.78348125    -0.28200
C2310       C  0.24352746  0.98802045  0.77923261     0.44700
C2311       C  0.24692266  0.95891440  0.77954657     0.05900
O2312       O  0.26639694  0.96677787  0.78629904    -0.56700
H2313       H  0.26774572  0.98648846  0.78876348     0.18800
O2314       O  0.23568039  0.99481485  0.77764052    -0.63400
H2315       H  0.23449789  0.97504943  0.77449534     0.17300
C2316       C  0.23839975  0.95501752  0.78488007     0.29500
C2317       C  0.23734168  0.94443404  0.78640304    -0.24300
C2318       C  0.24471425  0.93746878  0.78279357    -0.23600
C2319       C  0.25274994  0.94126862  0.77668972     0.41000
C2320       C  0.25375780  0.95188511  0.77505454    -0.26100
O2321       O  0.23146841  0.96150990  0.78935618    -0.58000
H2322       H  0.23111466  0.94171121  0.79113504     0.16600
O2323       O  0.26014576  0.93482066  0.77298614    -0.59400
H2324       H  0.26026560  0.95467431  0.77076714     0.15100
H2325       H  0.23416583  0.99449281  0.77020631     0.46900
H2326       H  0.23426768  0.96297581  0.79627226     0.42300
H2327       H  0.26499926  0.93381521  0.77873723     0.45700
H2328       H  0.26491770  0.96473104  0.79345548     0.37200
C2329       C  0.23807991  0.88557562  0.69349267    -0.27000
C2330       C  0.24607498  0.87982227  0.69774981     0.02600
C2331       C  0.25366839  0.88486321  0.70358864     0.30700
C2332       C  0.25337752  0.89555996  0.70470475    -0.18800
C2333       C  0.24556878  0.90126995  0.70004543    -0.28200
C2334       C  0.23777554  0.89618064  0.69462020     0.44700
C2335       C  0.24641683  0.86864548  0.69571829     0.05900
O2336       O  0.26153049  0.87945482  0.70797743    -0.56700
H2337       H  0.25949391  0.89942726  0.70876894     0.18800
O2338       O  0.22988269  0.90158994  0.69025530    -0.63400
H2339       H  0.23221026  0.88187861  0.68893476     0.17300
C2340       C  0.23769116  0.86252158  0.69728367     0.29500
C2341       C  0.23790788  0.85211524  0.69484758    -0.24300
C2342       C  0.24678393  0.84752556  0.69090950    -0.23600
C2343       C  0.25544278  0.85371155  0.68904925     0.41000
C2344       C  0.25522642  0.86416577  0.69151374    -0.26100
O2345       O  0.22890017  0.86661173  0.70129400    -0.58000
H2346       H  0.23115231  0.84756475  0.69635128     0.16600
O2347       O  0.26412807  0.84966327  0.68478848    -0.59400
H2348       H  0.26189520  0.86882579  0.68995175     0.15100
H2349       H  0.23119448  0.90145398  0.68278081     0.46900
H2350       H  0.23012108  0.86702246  0.70877484     0.42300
H2351       H  0.26324705  0.85056199  0.67727839     0.45700
H2352       H  0.25896759  0.87738498  0.71479860     0.37200
C2353       C  0.23484272  0.95267832  0.71175626    -0.27000
C2354       C  0.24157765  0.96006611  0.70775850     0.02600
C2355       C  0.25111449  0.95683450  0.70389841     0.30700
C2356       C  0.25346229  0.94641374  0.70343820    -0.18800
C2357       C  0.24632028  0.93902367  0.70645382    -0.28200
C2358       C  0.23709865  0.94219100  0.71099583     0.44700
C2359       C  0.23826638  0.97092961  0.70667331     0.05900
O2360       O  0.25783250  0.96370453  0.69970072    -0.56700
H2361       H  0.26050303  0.94405011  0.69975905     0.18800
O2362       O  0.22988393  0.93513372  0.71385578    -0.63400
H2363       H  0.22753890  0.95501468  0.71488699     0.17300
C2364       C  0.22893198  0.97342380  0.70181693     0.29500
C2365       C  0.22618534  0.98369592  0.70036386    -0.24300
C2366       C  0.23274097  0.99165851  0.70341486    -0.23600
C2367       C  0.24227251  0.98914944  0.70782271     0.41000
C2368       C  0.24482845  0.97890253  0.70968038    -0.26100
O2369       O  0.22257343  0.96589595  0.69816265    -0.58000
H2370       H  0.21894810  0.98544951  0.69670294     0.16600
O2371       O  0.24937741  0.99658121  0.70990732    -0.59400
H2372       H  0.25211982  0.97716814  0.71323453     0.15100
H2373       H  0.22521481  0.93449395  0.70787836     0.46900
H2374       H  0.22561830  0.96371222  0.69154666     0.42300
H2375       H  0.25252606  0.99824324  0.70320782     0.45700
H2376       H  0.25574380  0.96432737  0.69241019     0.37200
C2377       C  0.24017081  0.91028519  0.73323293    -0.27000
C2378       C  0.24767111  0.91522270  0.73918114     0.02600
C2379       C  0.25503983  0.92132123  0.73421670     0.30700
C2380       C  0.25472949  0.92252684  0.72354911    -0.18800
C2381       C  0.24709155  0.91778908  0.71763046    -0.28200
C2382       C  0.23978238  0.91161051  0.72257378     0.44700
C2383       C  0.24718812  0.91479332  0.75057737     0.05900
O2384       O  0.26239404  0.92639689  0.73974819    -0.56700
H2385       H  0.26040724  0.92729254  0.71986332     0.18800
O2386       O  0.23198914  0.90716181  0.71712775    -0.63400
H2387       H  0.23442107  0.90559691  0.73690992     0.17300
C2388       C  0.23841944  0.91831014  0.75575120     0.29500
C2389       C  0.23838858  0.91896610  0.76645498    -0.24300
C2390       C  0.24692920  0.91595042  0.77223075    -0.23600
C2391       C  0.25554616  0.91199917  0.76713635     0.41000
C2392       C  0.25568359  0.91154129  0.75636873    -0.26100
O2393       O  0.23009131  0.92178753  0.75037160    -0.58000
H2394       H  0.23174000  0.92207112  0.77029652     0.16600
O2395       O  0.26413064  0.90935475  0.77257189    -0.59400
H2396       H  0.26250655  0.90884450  0.75252324     0.15100
H2397       H  0.22657963  0.91247647  0.71669977     0.46900
H2398       H  0.22504490  0.91612445  0.75064121     0.42300
H2399       H  0.26405682  0.90176428  0.77285115     0.45700
H2400       H  0.25900737  0.93270574  0.74227958     0.37200
C2401       C  0.22832752  0.75853848  0.09718675    -0.27000
C2402       C  0.23670813  0.75356556  0.09261047     0.02600
C2403       C  0.23501311  0.74429936  0.08734395     0.30700
C2404       C  0.22524506  0.73997010  0.08704710    -0.18800
C2405       C  0.21682802  0.74494020  0.09150754    -0.28200
C2406       C  0.21842541  0.75440714  0.09649143     0.44700
C2407       C  0.24715069  0.75813769  0.09300128     0.05900
O2408       O  0.24282343  0.73952560  0.08221873    -0.56700
H2409       H  0.22421160  0.73271676  0.08315902     0.18800
O2410       O  0.21038262  0.75983885  0.10046151    -0.63400
H2411       H  0.22944164  0.76571576  0.10120244     0.17300
C2412       C  0.24896891  0.76817283  0.08949170     0.29500
C2413       C  0.25900274  0.77191648  0.08891042    -0.24300
C2414       C  0.26738162  0.76579563  0.09174501    -0.23600
C2415       C  0.26556293  0.75584863  0.09546139     0.41000
C2416       C  0.25552156  0.75214199  0.09618611    -0.26100
O2417       O  0.24107137  0.77409991  0.08590206    -0.58000
H2418       H  0.26028997  0.77955548  0.08596198     0.16600
O2419       O  0.27355793  0.74949989  0.09789083    -0.59400
H2420       H  0.25428585  0.74440894  0.09891951     0.15100
H2421       H  0.20670941  0.76269183  0.09445073     0.46900
H2422       H  0.23975526  0.77919800  0.09136647     0.42300
H2423       H  0.27536649  0.74601385  0.09138077     0.45700
H2424       H  0.24265612  0.74245675  0.07520064     0.37200
C2425       C  0.27452087  0.76607963  0.05385285    -0.27000
C2426       C  0.27259038  0.77581280  0.04967850     0.02600
C2427       C  0.27147565  0.78423895  0.05634011     0.30700
C2428       C  0.27312976  0.78301760  0.06687629    -0.18800
C2429       C  0.27586803  0.77345711  0.07092814    -0.28200
C2430       C  0.27619429  0.76487766  0.06440596     0.44700
C2431       C  0.27320592  0.77741983  0.03842226     0.05900
O2432       O  0.26960947  0.79385510  0.05254403    -0.56700
H2433       H  0.27307518  0.78971387  0.07178705     0.18800
O2434       O  0.27894340  0.75545471  0.06815657    -0.63400
H2435       H  0.27535708  0.75951699  0.04883825     0.17300
C2436       C  0.28244582  0.77555525  0.03321348     0.29500
C2437       C  0.28340902  0.77818820  0.02286755    -0.24300
C2438       C  0.27518975  0.78250259  0.01744611    -0.23600
C2439       C  0.26585415  0.78415516  0.02256906     0.41000
C2440       C  0.26494374  0.78168266  0.03300946    -0.26100
O2441       O  0.29079667  0.77177934  0.03835341    -0.58000
H2442       H  0.29068380  0.77699813  0.01908981     0.16600
O2443       O  0.25786424  0.78889597  0.01766352    -0.59400
H2444       H  0.25784512  0.78331151  0.03695127     0.15100
H2445       H  0.28649173  0.75515042  0.06748900     0.46900
H2446       H  0.29096724  0.76436126  0.03669430     0.42300
H2447       H  0.25243110  0.78363144  0.01710151     0.45700
H2448       H  0.27642882  0.79663207  0.05071043     0.37200
C2449       C  0.20143661  0.74088804  0.03356493    -0.27000
C2450       C  0.21036067  0.73765778  0.03862394     0.02600
C2451       C  0.21842601  0.73348095  0.03282318     0.30700
C2452       C  0.21735219  0.73226074  0.02218306    -0.18800
C2453       C  0.20821756  0.73502363  0.01723108    -0.28200
C2454       C  0.20030639  0.73953107  0.02297880     0.44700
C2455       C  0.21057665  0.73759770  0.05000632     0.05900
O2456       O  0.22720288  0.73018609  0.03755332    -0.56700
H2457       H  0.22345452  0.72866712  0.01787869     0.18800
O2458       O  0.19126311  0.74224703  0.01837989    -0.63400
H2459       H  0.19511610  0.74400818  0.03792297     0.17300
C2460       C  0.20925633  0.74666847  0.05572719     0.29500
C2461       C  0.20766986  0.74617000  0.06635029    -0.24300
C2462       C  0.20721949  0.73667099  0.07134433    -0.23600
C2463       C  0.20908836  0.72766345  0.06572176     0.41000
C2464       C  0.21087703  0.72817447  0.05516151    -0.26100
O2465       O  0.20898211  0.75600069  0.05092540    -0.58000
H2466       H  0.20613059  0.75314925  0.07057381     0.16600
O2467       O  0.20889686  0.71829339  0.07047005    -0.59400
H2468       H  0.21187162  0.72112715  0.05088630     0.15100
H2469       H  0.19259540  0.74900887  0.01519312     0.46900
H2470       H  0.21622227  0.75814108  0.05037007     0.42300
H2471       H  0.20200646  0.71547571  0.06905781     0.45700
H2472       H  0.23209663  0.73594451  0.03686735     0.37200
C2473       C  0.23850124  0.74584108  0.99442948    -0.27000
C2474       C  0.23707123  0.75579695  0.99827580     0.02600
C2475       C  0.22740604  0.75854492  0.00219033     0.30700
C2476       C  0.21939449  0.75142962  0.00212767    -0.18800
C2477       C  0.22087131  0.74148178  0.99832215    -0.28200
C2478       C  0.23056527  0.73867219  0.99458987     0.44700
C2479       C  0.24579427  0.76310638  0.99838345     0.05900
O2480       O  0.22574011  0.76810675  0.00621514    -0.56700
H2481       H  0.21197700  0.75366605  0.00505158     0.18800
O2482       O  0.23243078  0.72890243  0.99121581    -0.63400
H2483       H  0.24584811  0.74358431  0.99134350     0.17300
C2484       C  0.25533921  0.76021419  0.00252873     0.29500
C2485       C  0.26355781  0.76703935  0.00233916    -0.24300
C2486       C  0.26244794  0.77688355  0.99820672    -0.23600
C2487       C  0.25289347  0.77987691  0.99419694     0.41000
C2488       C  0.24467649  0.77298491  0.99423507    -0.26100
O2489       O  0.25671360  0.75074058  0.00685667    -0.58000
H2490       H  0.27086001  0.76465898  0.00546541     0.16600
O2491       O  0.25148147  0.78953135  0.99031471    -0.59400
H2492       H  0.23742691  0.77534286  0.99096660     0.15100
H2493       H  0.23260431  0.72460496  0.99746621     0.46900
H2494       H  0.25396668  0.75135048  0.01389317     0.42300
H2495       H  0.25078704  0.79406162  0.99637917     0.45700
H2496       H  0.22780964  0.76758644  0.01351187     0.37200
C2497       C  0.25410704  0.79455768  0.87289614    -0.27000
C2498       C  0.24725971  0.80166559  0.86855624     0.02600
C2499       C  0.24082208  0.80731744  0.87509292     0.30700
C2500       C  0.24184615  0.80643441  0.88573573    -0.18800
C2501       C  0.24919608  0.79990049  0.89009601    -0.28200
C2502       C  0.25510155  0.79364704  0.88358929     0.44700
C2503       C  0.24757798  0.80400809  0.85738163     0.05900
O2504       O  0.23396738  0.81424388  0.87116599    -0.56700
H2505       H  0.23728654  0.81134604  0.89062304     0.18800
O2506       O  0.26237778  0.78719099  0.88755366    -0.63400
H2507       H  0.25903827  0.79005904  0.86798086     0.17300
C2508       C  0.25652579  0.80794736  0.85286791     0.29500
C2509       C  0.25650908  0.81102258  0.84255943    -0.24300
C2510       C  0.24762620  0.81028282  0.83650842    -0.23600
C2511       C  0.23869544  0.80613394  0.84102799     0.41000
C2512       C  0.23873609  0.80307587  0.85134642    -0.26100
O2513       O  0.26520473  0.80930961  0.85862937    -0.58000
H2514       H  0.26348260  0.81409045  0.83932452     0.16600
O2515       O  0.22996602  0.80467857  0.83536578    -0.59400
H2516       H  0.23180515  0.79999435  0.85466968     0.15100
H2517       H  0.26867949  0.79136906  0.88808924     0.46900
H2518       H  0.26964692  0.80338731  0.85696123     0.42300
H2519       H  0.22555474  0.81065722  0.83694365     0.45700
H2520       H  0.23780779  0.82077134  0.87061908     0.37200
C2521       C  0.27242504  0.79448221  0.94102343    -0.27000
C2522       C  0.26522193  0.78935835  0.94709930     0.02600
C2523       C  0.25591457  0.78623499  0.94259837     0.30700
C2524       C  0.25364602  0.78895109  0.93240558    -0.18800
C2525       C  0.26059926  0.79472311  0.92659485    -0.28200
C2526       C  0.27016128  0.79722882  0.93091570     0.44700
C2527       C  0.26702077  0.78882902  0.95835680     0.05900
O2528       O  0.24863099  0.78137691  0.94835620    -0.56700
H2529       H  0.24621457  0.78705181  0.92925282     0.18800
O2530       O  0.27729882  0.80252033  0.92533259    -0.63400
H2531       H  0.27967326  0.79683264  0.94431194     0.17300
C2532       C  0.26723602  0.77953577  0.96385602     0.29500
C2533       C  0.26962184  0.77956191  0.97439545    -0.24300
C2534       C  0.27172221  0.78879047  0.97956051    -0.23600
C2535       C  0.27121103  0.79805671  0.97405789     0.41000
C2536       C  0.26892552  0.79801384  0.96361010    -0.26100
O2537       O  0.26580028  0.77039020  0.95887775    -0.58000
H2538       H  0.27018093  0.77233959  0.97843203     0.16600
O2539       O  0.27306211  0.80724830  0.97880882    -0.59400
H2540       H  0.26870491  0.80524333  0.95953950     0.15100
H2541       H  0.27747473  0.80950315  0.92834093     0.46900
H2542       H  0.25922708  0.76767293  0.96149619     0.42300
H2543       H  0.26633140  0.80949717  0.98148123     0.45700
H2544       H  0.24849880  0.77422380  0.94580069     0.37200
C2545       C  0.23582461  0.71509167  0.87437442    -0.27000
C2546       C  0.24294072  0.70771761  0.87099254     0.02600
C2547       C  0.24919365  0.70286368  0.87833473     0.30700
C2548       C  0.24796919  0.70502860  0.88877497    -0.18800
C2549       C  0.24047294  0.71194823  0.89222538    -0.28200
C2550       C  0.23453238  0.71718353  0.88488576     0.44700
C2551       C  0.24361355  0.70487744  0.85989422     0.05900
O2552       O  0.25617032  0.69556572  0.87544996    -0.56700
H2553       H  0.25253980  0.70082060  0.89428425     0.18800
O2554       O  0.22703466  0.72387929  0.88789216    -0.63400
H2555       H  0.23104075  0.71903409  0.86885788     0.17300
C2556       C  0.23492219  0.70164450  0.85435433     0.29500
C2557       C  0.23568876  0.69922637  0.84388200    -0.24300
C2558       C  0.24509646  0.69983503  0.83869039    -0.23600
C2559       C  0.25389359  0.70258530  0.84440632     0.41000
C2560       C  0.25307188  0.70516520  0.85482488    -0.26100
O2561       O  0.22570181  0.70047268  0.85920377    -0.58000
H2562       H  0.22883416  0.69695584  0.83979679     0.16600
O2563       O  0.26330035  0.70320622  0.83983285    -0.59400
H2564       H  0.25987239  0.70754981  0.85893824     0.15100
H2565       H  0.22085774  0.71960789  0.88891201     0.46900
H2566       H  0.22150909  0.70640653  0.85702563     0.42300
H2567       H  0.26669458  0.69657675  0.84136448     0.45700
H2568       H  0.25221115  0.68910488  0.87489298     0.37200
C2569       C  0.23178310  0.72913259  0.94422808    -0.27000
C2570       C  0.22250043  0.72552799  0.94827175     0.02600
C2571       C  0.21589510  0.71984524  0.94193819     0.30700
C2572       C  0.21883270  0.71730462  0.93196568    -0.18800
C2573       C  0.22839517  0.72025221  0.92809907    -0.28200
C2574       C  0.23479275  0.72647206  0.93421328     0.44700
C2575       C  0.22004212  0.72677658  0.95931098     0.05900
O2576       O  0.20661496  0.71654939  0.94554523    -0.56700
H2577       H  0.21379989  0.71255306  0.92737674     0.18800
O2578       O  0.24419096  0.72951984  0.93072230    -0.63400
H2579       H  0.23693078  0.73354090  0.94902085     0.17300
C2580       C  0.21985983  0.71813837  0.96576585     0.29500
C2581       C  0.21632779  0.71901472  0.97583049    -0.24300
C2582       C  0.21316234  0.72849967  0.97975754    -0.23600
C2583       C  0.21363946  0.73723203  0.97344702     0.41000
C2584       C  0.21705801  0.73632968  0.96326431    -0.26100
O2585       O  0.22286116  0.70872422  0.96219095    -0.58000
H2586       H  0.21601063  0.71223211  0.98059893     0.16600
O2587       O  0.21009274  0.74648804  0.97692603    -0.59400
H2588       H  0.21702982  0.74300863  0.95834827     0.15100
H2589       H  0.24885543  0.72372083  0.93220274     0.46900
H2590       H  0.23027555  0.70829475  0.96374270     0.42300
H2591       H  0.21627652  0.75072595  0.97805831     0.45700
H2592       H  0.20757800  0.70918814  0.94716617     0.37200
C2593       C  0.24911145  0.74426683  0.90433067    -0.27000
C2594       C  0.24213578  0.75155664  0.90807426     0.02600
C2595       C  0.23254761  0.74811873  0.91166229     0.30700
C2596       C  0.23016466  0.73764439  0.91148439    -0.18800
C2597       C  0.23738566  0.73034705  0.90826067    -0.28200
C2598       C  0.24692846  0.73378125  0.90466885     0.44700
C2599       C  0.24505945  0.76262413  0.90827100     0.05900
O2600       O  0.22558785  0.75485192  0.91571525    -0.56700
H2601       H  0.22278069  0.73516418  0.91427267     0.18800
O2602       O  0.25439456  0.72694331  0.90194112    -0.63400
H2603       H  0.25643922  0.74668033  0.90133876     0.17300
C2604       C  0.25484782  0.76575729  0.91166466     0.29500
C2605       C  0.25767851  0.77608063  0.91120109    -0.24300
C2606       C  0.25073704  0.78356444  0.90788100    -0.23600
C2607       C  0.24085267  0.78053447  0.90482042     0.41000
C2608       C  0.23815195  0.77014942  0.90483670    -0.26100
O2609       O  0.26166319  0.75882251  0.91564254    -0.58000
H2610       H  0.26527520  0.77829777  0.91366432     0.16600
O2611       O  0.23369572  0.78767504  0.90198263    -0.59400
H2612       H  0.23062260  0.76799184  0.90212693     0.15100
H2613       H  0.25812719  0.72539835  0.90838865     0.46900
H2614       H  0.26051051  0.75896996  0.92314734     0.42300
H2615       H  0.23123385  0.79072936  0.90848520     0.45700
H2616       H  0.22725909  0.75522115  0.92312390     0.37200
C2617       C  0.23886221  0.79823866  0.62364483    -0.27000
C2618       C  0.24629000  0.80543451  0.62665801     0.02600
C2619       C  0.25243994  0.81000978  0.61910471     0.30700
C2620       C  0.25063783  0.80791096  0.60872103    -0.18800
C2621       C  0.24281610  0.80116960  0.60568266    -0.28200
C2622       C  0.23709433  0.79610641  0.61325019     0.44700
C2623       C  0.24695577  0.80873059  0.63756022     0.05900
O2624       O  0.25982471  0.81699292  0.62175310    -0.56700
H2625       H  0.25500391  0.81198799  0.60298040     0.18800
O2626       O  0.22926819  0.78964494  0.61056447    -0.63400
H2627       H  0.23411275  0.79459295  0.62936671     0.17300
C2628       C  0.23835283  0.81289344  0.64253033     0.29500
C2629       C  0.23888107  0.81560952  0.65289364    -0.24300
C2630       C  0.24796309  0.81434101  0.65854723    -0.23600
C2631       C  0.25672150  0.81056096  0.65343074     0.41000
C2632       C  0.25616497  0.80782816  0.64303291    -0.26100
O2633       O  0.22933175  0.81427668  0.63732803    -0.58000
H2634       H  0.23206738  0.81857701  0.65655283     0.16600
O2635       O  0.26579650  0.80921447  0.65854559    -0.59400
H2636       H  0.26288400  0.80473402  0.63930149     0.15100
H2637       H  0.22314617  0.79409005  0.60992808     0.46900
H2638       H  0.23002028  0.82101160  0.63389439     0.42300
H2639       H  0.26554464  0.80211444  0.66123305     0.45700
H2640       H  0.25635721  0.82374633  0.62157800     0.37200
C2641       C  0.25658626  0.71705681  0.62442187    -0.27000
C2642       C  0.25092646  0.70865048  0.62806597     0.02600
C2643       C  0.24616295  0.70210688  0.62092408     0.30700
C2644       C  0.24751332  0.70371355  0.61041948    -0.18800
C2645       C  0.25369640  0.71172502  0.60676817    -0.28200
C2646       C  0.25806421  0.71857217  0.61387582     0.44700
C2647       C  0.25053804  0.70638367  0.63925022     0.05900
O2648       O  0.24063412  0.69377544  0.62411331    -0.56700
H2649       H  0.24416771  0.69830125  0.60507884     0.18800
O2650       O  0.26430696  0.72636415  0.61067776    -0.63400
H2651       H  0.26019450  0.72225666  0.62979305     0.17300
C2652       C  0.25959264  0.70536930  0.64502924     0.29500
C2653       C  0.25912358  0.70305033  0.65549388    -0.24300
C2654       C  0.24969302  0.70179797  0.66050738    -0.23600
C2655       C  0.24061010  0.70270040  0.65466048     0.41000
C2656       C  0.24109970  0.70495586  0.64415971    -0.26100
O2657       O  0.26897171  0.70629498  0.64043428    -0.58000
H2658       H  0.26623377  0.70238890  0.65971661     0.16600
O2659       O  0.23118705  0.70174594  0.65914303    -0.59400
H2660       H  0.23404910  0.70574032  0.63985402     0.15100
H2661       H  0.27122014  0.72329697  0.61019388     0.46900
H2662       H  0.27173436  0.71296250  0.64283038     0.42300
H2663       H  0.22939443  0.69440075  0.65844009     0.45700
H2664       H  0.24576697  0.68831221  0.62537301     0.37200
C2665       C  0.24248434  0.74287284  0.59497877    -0.27000
C2666       C  0.24889027  0.75065867  0.59117765     0.02600
C2667       C  0.25838248  0.74780626  0.58688715     0.30700
C2668       C  0.26135025  0.73750888  0.58663418    -0.18800
C2669       C  0.25482860  0.72971357  0.59011325    -0.28200
C2670       C  0.24526127  0.73249884  0.59423294     0.44700
C2671       C  0.24555414  0.76164644  0.59136105     0.05900
O2672       O  0.26476221  0.75497911  0.58266059    -0.56700
H2673       H  0.26877993  0.73559373  0.58354687     0.18800
O2674       O  0.23843236  0.72516253  0.59729038    -0.63400
H2675       H  0.23521070  0.74480504  0.59841920     0.17300
C2676       C  0.23566291  0.76457810  0.58812962     0.29500
C2677       C  0.23295269  0.77496711  0.58774590    -0.24300
C2678       C  0.24005271  0.78267363  0.59014846    -0.23600
C2679       C  0.24992878  0.77978002  0.59336049     0.41000
C2680       C  0.25249706  0.76938406  0.59424500    -0.26100
O2681       O  0.22882824  0.75741282  0.58461339    -0.58000
H2682       H  0.22532090  0.77702459  0.58525827     0.16600
O2683       O  0.25729553  0.78702710  0.59517011    -0.59400
H2684       H  0.26009507  0.76738401  0.59688928     0.15100
H2685       H  0.23468418  0.72317153  0.59097969     0.46900
H2686       H  0.22332652  0.75716290  0.58981270     0.42300
H2687       H  0.26050644  0.78829700  0.58840212     0.45700
H2688       H  0.26177824  0.75653827  0.57583922     0.37200
C2689       C  0.21695823  0.79213971  0.53480088    -0.27000
C2690       C  0.22081075  0.78363870  0.54011848     0.02600
C2691       C  0.22167647  0.77420100  0.53493135     0.30700
C2692       C  0.21836691  0.77333355  0.52468249    -0.18800
C2693       C  0.21437089  0.78185423  0.51942402    -0.28200
C2694       C  0.21385979  0.79134695  0.52458860     0.44700
C2695       C  0.22357013  0.78495176  0.55111824     0.05900
O2696       O  0.22517152  0.76567957  0.53998256    -0.56700
H2697       H  0.21865863  0.76592196  0.52096980     0.18800
O2698       O  0.21029150  0.79995753  0.51973786    -0.63400
H2699       H  0.21635559  0.79949314  0.53861568     0.17300
C2700       C  0.23365522  0.78351277  0.55470914     0.29500
C2701       C  0.23641340  0.78689096  0.56457623    -0.24300
C2702       C  0.22921295  0.79169206  0.57092358    -0.23600
C2703       C  0.21899752  0.79245350  0.56760424     0.41000
C2704       C  0.21623600  0.78905386  0.55781341    -0.26100
O2705       O  0.24105974  0.77974282  0.54831029    -0.58000
H2706       H  0.24432088  0.78634377  0.56701554     0.16600
O2707       O  0.21169896  0.79670527  0.57384098    -0.59400
H2708       H  0.20841525  0.79008551  0.55524340     0.15100
H2709       H  0.21629407  0.80281358  0.51608820     0.46900
H2710       H  0.24300926  0.77300185  0.55122252     0.42300
H2711       H  0.21052373  0.80369031  0.57113118     0.45700
H2712       H  0.23195595  0.76417532  0.53694526     0.37200
C2713       C  0.27201056  0.73486466  0.53411572    -0.27000
C2714       C  0.27140416  0.72539456  0.53914082     0.02600
C2715       C  0.27345676  0.71635178  0.53366923     0.30700
C2716       C  0.27613536  0.71683129  0.52332289    -0.18800
C2717       C  0.27689198  0.72628011  0.51826149    -0.28200
C2718       C  0.27477160  0.73536313  0.52371959     0.44700
C2719       C  0.26910342  0.72483307  0.55021048     0.05900
O2720       O  0.27286530  0.70699801  0.53841476    -0.56700
H2721       H  0.27778340  0.70978096  0.51925925     0.18800
O2722       O  0.27614275  0.74474147  0.51919799    -0.63400
H2723       H  0.27061795  0.74188059  0.53832607     0.17300
C2724       C  0.27703046  0.72312505  0.55730715     0.29500
C2725       C  0.27470256  0.72069037  0.56747670    -0.24300
C2726       C  0.26450723  0.71987695  0.57069247    -0.23600
C2727       C  0.25657629  0.72198215  0.56370193     0.41000
C2728       C  0.25890692  0.72453443  0.55352884    -0.26100
O2729       O  0.28705668  0.72343631  0.55424762    -0.58000
H2730       H  0.28086435  0.71891443  0.57275139     0.16600
O2731       O  0.24655385  0.72084204  0.56654293    -0.59400
H2732       H  0.25274953  0.72566578  0.54807756     0.15100
H2733       H  0.26924112  0.74788648  0.51886110     0.46900
H2734       H  0.28913922  0.71616871  0.55341659     0.42300
H2735       H  0.24498407  0.71348850  0.56537988     0.45700
H2736       H  0.28001951  0.70517915  0.54018493     0.37200
C2737       C  0.24947313  0.74006976  0.50301424    -0.27000
C2738       C  0.24989782  0.75003387  0.49895536     0.02600
C2739       C  0.25918363  0.75357422  0.49478769     0.30700
C2740       C  0.26788232  0.74735729  0.49507801    -0.18800
C2741       C  0.26746206  0.73745922  0.49922632    -0.28200
C2742       C  0.25810978  0.73374210  0.50299661     0.44700
C2743       C  0.24070781  0.75672334  0.49933683     0.05900
O2744       O  0.25984399  0.76308556  0.49038713    -0.56700
H2745       H  0.27502430  0.75027215  0.49208062     0.18800
O2746       O  0.25732492  0.72393472  0.50664614    -0.63400
H2747       H  0.24244588  0.73720098  0.50630825     0.17300
C2748       C  0.23107820  0.75312862  0.49605937     0.29500
C2749       C  0.22248523  0.75945581  0.49685136    -0.24300
C2750       C  0.22332559  0.76946696  0.50067131    -0.23600
C2751       C  0.23295659  0.77318512  0.50365633     0.41000
C2752       C  0.24152433  0.76677116  0.50316919    -0.26100
O2753       O  0.23010177  0.74366027  0.49157905    -0.58000
H2754       H  0.21512276  0.75661147  0.49430875     0.16600
O2755       O  0.23409733  0.78312339  0.50684716    -0.59400
H2756       H  0.24884162  0.76967728  0.50576589     0.15100
H2757       H  0.25594660  0.71963875  0.50053272     0.46900
H2758       H  0.22609376  0.73948840  0.49647834     0.42300
H2759       H  0.23520853  0.78712504  0.50048822     0.45700
H2760       H  0.25762336  0.76209984  0.48318594     0.37200
C2761       C  0.21545282  0.78127623  0.44427067    -0.27000
C2762       C  0.21452193  0.77183955  0.44932109     0.02600
C2763       C  0.21275880  0.76291754  0.44349172     0.30700
C2764       C  0.21125411  0.76362886  0.43286688    -0.18800
C2765       C  0.21133519  0.77320070  0.42798774    -0.28200
C2766       C  0.21372008  0.78201190  0.43371497     0.44700
C2767       C  0.21372321  0.77175403  0.46065962     0.05900
O2768       O  0.21179018  0.75358960  0.44821080    -0.56700
H2769       H  0.20923013  0.75681350  0.42857542     0.18800
O2770       O  0.21384517  0.79146112  0.42912569    -0.63400
H2771       H  0.21670732  0.78822799  0.44863272     0.17300
C2772       C  0.22154817  0.77572759  0.46693536     0.29500
C2773       C  0.21986520  0.77707503  0.47746468    -0.24300
C2774       C  0.21036505  0.77463101  0.48183698    -0.23600
C2775       C  0.20272548  0.77022382  0.47562884     0.41000
C2776       C  0.20443242  0.76881462  0.46514776    -0.26100
O2777       O  0.23081705  0.77837676  0.46281767    -0.58000
H2778       H  0.22583115  0.78048687  0.48211423     0.16600
O2779       O  0.19343678  0.76754685  0.47967509    -0.59400
H2780       H  0.19829710  0.76583571  0.46041430     0.15100
H2781       H  0.20698016  0.79439596  0.43034790     0.46900
H2782       H  0.23061096  0.78592856  0.46209271     0.42300
H2783       H  0.19452218  0.76068881  0.48275683     0.45700
H2784       H  0.21879051  0.75069094  0.44835661     0.37200
C2785       C  0.27904224  0.72768033  0.44283244    -0.27000
C2786       C  0.27749886  0.73678348  0.44830643     0.02600
C2787       C  0.27716293  0.74616896  0.44301699     0.30700
C2788       C  0.27889439  0.74639875  0.43241782    -0.18800
C2789       C  0.28118899  0.73734693  0.42709855    -0.28200
C2790       C  0.28098972  0.72792384  0.43232324     0.44700
C2791       C  0.27797815  0.73639959  0.45960015     0.05900
O2792       O  0.27585464  0.75518165  0.44825521    -0.56700
H2793       H  0.27918423  0.75370786  0.42850440     0.18800
O2794       O  0.28337846  0.71898459  0.42734224    -0.63400
H2795       H  0.27943949  0.72042978  0.44685064     0.17300
C2796       C  0.27015325  0.73183070  0.46537731     0.29500
C2797       C  0.27162075  0.72999696  0.47585917    -0.24300
C2798       C  0.28091993  0.73253250  0.48063207    -0.23600
C2799       C  0.28863141  0.73734742  0.47488100     0.41000
C2800       C  0.28707202  0.73936754  0.46447082    -0.26100
O2801       O  0.26125696  0.72872757  0.46074292    -0.58000
H2802       H  0.26566466  0.72617932  0.48016084     0.16600
O2803       O  0.29772464  0.74007944  0.47937817    -0.59400
H2804       H  0.29318624  0.74280085  0.46006245     0.15100
H2805       H  0.27680995  0.71647311  0.42447915     0.46900
H2806       H  0.25629590  0.73431396  0.46205523     0.42300
H2807       H  0.30270017  0.73477761  0.47720063     0.45700
H2808       H  0.26854928  0.75696376  0.44733342     0.37200
C2809       C  0.23883400  0.76893594  0.40971749    -0.27000
C2810       C  0.24062793  0.75919469  0.40555184     0.02600
C2811       C  0.23225833  0.75355390  0.40164809     0.30700
C2812       C  0.22227417  0.75744508  0.40246682    -0.18800
C2813       C  0.22051181  0.76703539  0.40698760    -0.28200
C2814       C  0.22894047  0.77292930  0.41023758     0.44700
C2815       C  0.25115418  0.75483883  0.40582363     0.05900
O2816       O  0.23374416  0.74417407  0.39715262    -0.56700
H2817       H  0.21588976  0.75287710  0.39980328     0.18800
O2818       O  0.22757513  0.78261785  0.41403882    -0.63400
H2819       H  0.24510284  0.77340775  0.41279413     0.17300
C2820       C  0.25966541  0.76045711  0.40230889     0.29500
C2821       C  0.26955301  0.75636589  0.40321235    -0.24300
C2822       C  0.27114145  0.74663769  0.40750532    -0.23600
C2823       C  0.26259651  0.74092587  0.41075449     0.41000
C2824       C  0.25276292  0.74509261  0.41006818    -0.26100
O2825       O  0.25834713  0.76978730  0.39765622    -0.58000
H2826       H  0.27600903  0.76083232  0.40059640     0.16600
O2827       O  0.26373390  0.73117439  0.41446663    -0.59400
H2828       H  0.24635464  0.74068517  0.41291100     0.15100
H2829       H  0.22620755  0.78697550  0.40796577     0.46900
H2830       H  0.26099023  0.77491651  0.40261024     0.42300
H2831       H  0.26466382  0.72679024  0.40833633     0.45700
H2832       H  0.23539493  0.74568693  0.38990735     0.37200
C2833       C  0.29546093  0.77362433  0.14524175    -0.27000
C2834       C  0.29313697  0.76465507  0.13974277     0.02600
C2835       C  0.29385288  0.75515015  0.14477070     0.30700
C2836       C  0.29656992  0.75471048  0.15513700    -0.18800
C2837       C  0.29863304  0.76367195  0.16078135    -0.28200
C2838       C  0.29823229  0.77319387  0.15564682     0.44700
C2839       C  0.29033695  0.76517248  0.12868655     0.05900
O2840       O  0.29175057  0.74621303  0.13965006    -0.56700
H2841       H  0.29677145  0.74728720  0.15883103     0.18800
O2842       O  0.30047005  0.78213409  0.16069480    -0.63400
H2843       H  0.29521421  0.78098606  0.14142693     0.17300
C2844       C  0.28188260  0.77093292  0.12518906     0.29500
C2845       C  0.27976499  0.77163893  0.11462821    -0.24300
C2846       C  0.28607533  0.76671718  0.10746688    -0.23600
C2847       C  0.29417017  0.76052034  0.11103979     0.41000
C2848       C  0.29627145  0.75983048  0.12152399    -0.26100
O2849       O  0.27564573  0.77585564  0.13204201    -0.58000
H2850       H  0.27355694  0.77648639  0.11202204     0.16600
O2851       O  0.30039526  0.75547544  0.10425972    -0.59400
H2852       H  0.30276523  0.75532460  0.12405199     0.15100
H2853       H  0.30800956  0.78285894  0.16019750     0.46900
H2854       H  0.27788536  0.78310875  0.13196665     0.42300
H2855       H  0.29768654  0.74837984  0.10394982     0.45700
H2856       H  0.28419509  0.74561587  0.13969346     0.37200
C2857       C  0.19422331  0.75275473  0.35535353    -0.27000
C2858       C  0.19469456  0.76270562  0.35938485     0.02600
C2859       C  0.19175693  0.77100278  0.35316292     0.30700
C2860       C  0.18887876  0.76932489  0.34294153    -0.18800
C2861       C  0.18861973  0.75936538  0.33878513    -0.28200
C2862       C  0.19111182  0.75102338  0.34522462     0.44700
C2863       C  0.19757298  0.76424240  0.37029473     0.05900
O2864       O  0.19155987  0.78076812  0.35703814    -0.56700
H2865       H  0.18688841  0.77587171  0.33824899     0.18800
O2866       O  0.19092224  0.74115296  0.34163449    -0.63400
H2867       H  0.19630790  0.74627300  0.36010007     0.17300
C2868       C  0.19173172  0.75965657  0.37806568     0.29500
C2869       C  0.19403969  0.76155009  0.38833851    -0.24300
C2870       C  0.20209345  0.76809351  0.39112872    -0.23600
C2871       C  0.20815486  0.77249381  0.38340062     0.41000
C2872       C  0.20589514  0.77052441  0.37303686    -0.26100
O2873       O  0.18342534  0.75368643  0.37569599    -0.58000
H2874       H  0.18917851  0.75827243  0.39419203     0.16600
O2875       O  0.21593225  0.77910212  0.38586114    -0.59400
H2876       H  0.21047077  0.77409946  0.36713176     0.15100
H2877       H  0.18400721  0.73855075  0.34336639     0.46900
H2878       H  0.17777213  0.75859273  0.37433590     0.42300
H2879       H  0.21267403  0.78594386  0.38634624     0.45700
H2880       H  0.18446913  0.78175313  0.35956367     0.37200
C2881       C  0.18208864  0.75779199  0.26059814    -0.27000
C2882       C  0.18606626  0.74882740  0.25623471     0.02600
C2883       C  0.18989318  0.74105279  0.26265021     0.30700
C2884       C  0.18974127  0.74235197  0.27330803    -0.18800
C2885       C  0.18583664  0.75137485  0.27768316    -0.28200
C2886       C  0.18188989  0.75908126  0.27121870     0.44700
C2887       C  0.18635400  0.74785405  0.24495883     0.05900
O2888       O  0.19427401  0.73242841  0.25854455    -0.56700
H2889       H  0.19289636  0.73639041  0.27814514     0.18800
O2890       O  0.17772683  0.76787129  0.27518910    -0.63400
H2891       H  0.17905995  0.76379615  0.25572927     0.17300
C2892       C  0.18105882  0.73995397  0.23986180     0.29500
C2893       C  0.18129769  0.73936729  0.22916025    -0.24300
C2894       C  0.18656718  0.74674984  0.22341884    -0.23600
C2895       C  0.19182779  0.75466642  0.22852644     0.41000
C2896       C  0.19168372  0.75517776  0.23921492    -0.26100
O2897       O  0.17543001  0.73293432  0.24524877    -0.58000
H2898       H  0.17711134  0.73330837  0.22532572     0.16600
O2899       O  0.19720693  0.76189250  0.22315059    -0.59400
H2900       H  0.19576959  0.76130344  0.24305215     0.15100
H2901       H  0.17046322  0.76616064  0.27658918     0.46900
H2902       H  0.16872005  0.73627379  0.24643212     0.42300
H2903       H  0.20396291  0.75871443  0.22178747     0.45700
H2904       H  0.18933421  0.72681396  0.25985786     0.37200
C2905       C  0.23363742  0.74212565  0.18889871    -0.27000
C2906       C  0.23789946  0.75155682  0.19182511     0.02600
C2907       C  0.23133544  0.75962217  0.19470769     0.30700
C2908       C  0.22074618  0.75817998  0.19463975    -0.18800
C2909       C  0.21646300  0.74870174  0.19185617    -0.28200
C2910       C  0.22303088  0.74065353  0.18889026     0.44700
C2911       C  0.24916560  0.75295642  0.19166936     0.05900
O2912       O  0.23518017  0.76892640  0.19772622    -0.56700
H2913       H  0.21587636  0.76448270  0.19695798     0.18800
O2914       O  0.21919362  0.73135591  0.18585536    -0.63400
H2915       H  0.23855300  0.73590338  0.18646545     0.17300
C2916       C  0.25576611  0.74590606  0.19652266     0.29500
C2917       C  0.26638115  0.74725145  0.19601511    -0.24300
C2918       C  0.27055118  0.75578058  0.19100826    -0.23600
C2919       C  0.26395196  0.76290985  0.18630394     0.41000
C2920       C  0.25338021  0.76140766  0.18656043    -0.26100
O2921       O  0.25191526  0.73781060  0.20197374    -0.58000
H2922       H  0.27134826  0.74180428  0.19983239     0.16600
O2923       O  0.26775528  0.77135676  0.18136648    -0.59400
H2924       H  0.24845360  0.76685035  0.18268989     0.15100
H2925       H  0.21863487  0.73179088  0.17828836     0.46900
H2926       H  0.25060503  0.74056638  0.20894119     0.42300
H2927       H  0.26978919  0.76888905  0.17448813     0.45700
H2928       H  0.23718946  0.76800874  0.20499239     0.37200
C2929       C  0.19441594  0.73595003  0.14656551    -0.27000
C2930       C  0.19459029  0.74520616  0.14111629     0.02600
C2931       C  0.19152200  0.75425685  0.14614734     0.30700
C2932       C  0.18842992  0.75395412  0.15642412    -0.18800
C2933       C  0.18836358  0.74469994  0.16195643    -0.28200
C2934       C  0.19141839  0.73563257  0.15685855     0.44700
C2935       C  0.19706226  0.74510496  0.12997734     0.05900
O2936       O  0.19155662  0.76346496  0.14109754    -0.56700
H2937       H  0.18625694  0.76106242  0.16011219     0.18800
O2938       O  0.19149533  0.72637074  0.16180577    -0.63400
H2939       H  0.19646175  0.72885900  0.14277310     0.17300
C2940       C  0.20593560  0.74026358  0.12612688     0.29500
C2941       C  0.20721583  0.73897184  0.11549263    -0.24300
C2942       C  0.19965400  0.74234702  0.10864089    -0.23600
C2943       C  0.19111994  0.74770676  0.11249353     0.41000
C2944       C  0.18988821  0.74904988  0.12302842    -0.26100
O2945       O  0.21332204  0.73670725  0.13270947    -0.58000
H2946       H  0.21380529  0.73482215  0.11265742     0.16600
O2947       O  0.18358751  0.75115250  0.10602122    -0.59400
H2948       H  0.18298647  0.75270765  0.12579630     0.15100
H2949       H  0.19859225  0.72553570  0.16438400     0.46900
H2950       H  0.21269948  0.72913442  0.13255958     0.42300
H2951       H  0.18638611  0.75745017  0.10286493     0.45700
H2952       H  0.19831254  0.76654702  0.14264451     0.37200
C2953       C  0.29818249  0.74645026  0.23722170    -0.27000
C2954       C  0.30194207  0.75436609  0.24342361     0.02600
C2955       C  0.30543199  0.76347954  0.23889647     0.30700
C2956       C  0.30490392  0.76469025  0.22827135    -0.18800
C2957       C  0.30108884  0.75681360  0.22202571    -0.28200
C2958       C  0.29773066  0.74761670  0.22658120     0.44700
C2959       C  0.30182852  0.75323103  0.25465112     0.05900
O2960       O  0.30968295  0.77107796  0.24479749    -0.56700
H2961       H  0.30759494  0.77176666  0.22490960     0.18800
O2962       O  0.29380563  0.73980863  0.22073884    -0.63400
H2963       H  0.29541774  0.73943132  0.24066423     0.17300
C2964       C  0.29566899  0.75967890  0.26067474     0.29500
C2965       C  0.29583872  0.75877367  0.27131510    -0.24300
C2966       C  0.30194865  0.75133275  0.27609176    -0.23600
C2967       C  0.30805442  0.74480537  0.27007033     0.41000
C2968       C  0.30791085  0.74574000  0.25938635    -0.26100
O2969       O  0.28944313  0.76687631  0.25621860    -0.58000
H2970       H  0.29108893  0.76383815  0.27585501     0.16600
O2971       O  0.31440623  0.73773373  0.27454711    -0.59400
H2972       H  0.31270422  0.74076969  0.25479438     0.15100
H2973       H  0.28641387  0.74139145  0.22000928     0.46900
H2974       H  0.28307746  0.76314865  0.25439867     0.42300
H2975       H  0.32060145  0.74163355  0.27659873     0.45700
H2976       H  0.30455728  0.77667942  0.24490026     0.37200
C2977       C  0.23367504  0.75940510  0.31150832    -0.27000
C2978       C  0.23825275  0.75047403  0.30766909     0.02600
C2979       C  0.23198179  0.74219216  0.30472081     0.30700
C2980       C  0.22131530  0.74305975  0.30535851    -0.18800
C2981       C  0.21673965  0.75217343  0.30880671    -0.28200
C2982       C  0.22304453  0.76029683  0.31210582     0.44700
C2983       C  0.24956212  0.74999254  0.30679029     0.05900
O2984       O  0.23617494  0.73331675  0.30097904    -0.56700
H2985       H  0.21661091  0.73670420  0.30284129     0.18800
O2986       O  0.21891118  0.76915328  0.31595996    -0.63400
H2987       H  0.23838466  0.76573996  0.31407065     0.17300
C2988       C  0.25501357  0.75780086  0.30173148     0.29500
C2989       C  0.26571627  0.75773721  0.30173339    -0.24300
C2990       C  0.27117293  0.74980093  0.30650928    -0.23600
C2991       C  0.26571404  0.74178311  0.31124553     0.41000
C2992       C  0.25500420  0.74194804  0.31139556    -0.26100
O2993       O  0.24993565  0.76554554  0.29676643    -0.58000
H2994       H  0.26976091  0.76386778  0.29789446     0.16600
O2995       O  0.27076159  0.73389569  0.31601237    -0.59400
H2996       H  0.25094902  0.73591201  0.31536698     0.15100
H2997       H  0.21807787  0.76788020  0.32339921     0.46900
H2998       H  0.24885240  0.76299489  0.28968699     0.42300
H2999       H  0.27171520  0.73618575  0.32319368     0.45700
H3000       H  0.23754475  0.73469927  0.29364267     0.37200
C3001       C  0.29576745  0.75919885  0.35342256    -0.27000
C3002       C  0.29403064  0.74989235  0.35846041     0.02600
C3003       C  0.29557508  0.74064787  0.35310009     0.30700
C3004       C  0.29829266  0.74080987  0.34273949    -0.18800
C3005       C  0.29974467  0.75013240  0.33755910    -0.28200
C3006       C  0.29875626  0.75938568  0.34314023     0.44700
C3007       C  0.29126925  0.74980061  0.36947487     0.05900
O3008       O  0.29450028  0.73138950  0.35793776    -0.56700
H3009       H  0.29913467  0.73358978  0.33873419     0.18800
O3010       O  0.30047600  0.76869775  0.33861222    -0.63400
H3011       H  0.29478776  0.76637532  0.35748027     0.17300
C3012       C  0.29765345  0.75454873  0.37675508     0.29500
C3013       C  0.29605766  0.75283583  0.38718166    -0.24300
C3014       C  0.28814927  0.74641748  0.39054106    -0.23600
C3015       C  0.28118455  0.74242164  0.38334967     0.41000
C3016       C  0.28279592  0.74410941  0.37286316    -0.26100
O3017       O  0.30591766  0.76026590  0.37375486    -0.58000
H3018       H  0.30145568  0.75597939  0.39265623     0.16600
O3019       O  0.27345367  0.73602826  0.38639301    -0.59400
H3020       H  0.27772701  0.74053425  0.36734299     0.15100
H3021       H  0.30777010  0.77026882  0.34005439     0.46900
H3022       H  0.31171396  0.75537095  0.37344114     0.42300
H3023       H  0.26712210  0.74019788  0.38589363     0.45700
H3024       H  0.30105526  0.73028425  0.36162496     0.37200
C3025       C  0.36888087  0.76432851  0.20897145    -0.27000
C3026       C  0.36141296  0.77180547  0.20683148     0.02600
C3027       C  0.36416536  0.78223328  0.20739175     0.30700
C3028       C  0.37420508  0.78501676  0.20966393    -0.18800
C3029       C  0.38180578  0.77759686  0.21123909    -0.28200
C3030       C  0.37905444  0.76716085  0.21108822     0.44700
C3031       C  0.35084563  0.76889194  0.20369638     0.05900
O3032       O  0.35721137  0.78980963  0.20522707    -0.56700
H3033       H  0.37619581  0.79307584  0.20966579     0.18800
O3034       O  0.38630042  0.75968347  0.21242439    -0.63400
H3035       H  0.36688851  0.75628008  0.20871420     0.17300
C3036       C  0.34894753  0.76215330  0.19543350     0.29500
C3037       C  0.33887428  0.76044999  0.19201901    -0.24300
C3038       C  0.33064453  0.76563963  0.19655754    -0.23600
C3039       C  0.33255420  0.77214796  0.20497775     0.41000
C3040       C  0.34252761  0.77363624  0.20851371    -0.26100
O3041       O  0.35688353  0.75741516  0.19047664    -0.58000
H3042       H  0.33752391  0.75528526  0.18565980     0.16600
O3043       O  0.32467297  0.77700795  0.20992071    -0.59400
H3044       H  0.34377834  0.77866250  0.21500667     0.15100
H3045       H  0.38867245  0.75793827  0.20543022     0.46900
H3046       H  0.35833857  0.76178004  0.18444777     0.42300
H3047       H  0.32382259  0.77324626  0.21645984     0.45700
H3048       H  0.35716333  0.79039015  0.19765413     0.37200
C3049       C  0.37180227  0.75448559  0.30102598    -0.27000
C3050       C  0.36447187  0.74879423  0.29561748     0.02600
C3051       C  0.36768546  0.74229687  0.28760743     0.30700
C3052       C  0.37817069  0.74088380  0.28573675    -0.18800
C3053       C  0.38548635  0.74588109  0.29181896    -0.28200
C3054       C  0.38223724  0.75307692  0.29915440     0.44700
C3055       C  0.35359199  0.74930060  0.29879974     0.05900
O3056       O  0.36062090  0.73726010  0.28166314    -0.56700
H3057       H  0.38056857  0.73536359  0.28002538     0.18800
O3058       O  0.38924273  0.75831539  0.30497403    -0.63400
H3059       H  0.36944393  0.75965435  0.30707406     0.17300
C3060       C  0.34845854  0.74050271  0.30231696     0.29500
C3061       C  0.33813923  0.74107581  0.30510103    -0.24300
C3062       C  0.33274711  0.75040379  0.30459730    -0.23600
C3063       C  0.33807008  0.75930041  0.30150159     0.41000
C3064       C  0.34840214  0.75869661  0.29871059    -0.26100
O3065       O  0.35345731  0.73128961  0.30306563    -0.58000
H3066       H  0.33431946  0.73413274  0.30753103     0.16600
O3067       O  0.33322598  0.76859940  0.30091593    -0.59400
H3068       H  0.35231985  0.76556516  0.29622309     0.15100
H3069       H  0.39179259  0.76386098  0.30046643     0.46900
H3070       H  0.35721890  0.73158852  0.30966412     0.42300
H3071       H  0.33076741  0.76911370  0.29373974     0.45700
H3072       H  0.36101091  0.72997626  0.28376141     0.37200
C3073       C  0.40062834  0.74551397  0.25599934    -0.27000
C3074       C  0.40093459  0.75626506  0.25538594     0.02600
C3075       C  0.40174739  0.76201929  0.26450902     0.30700
C3076       C  0.40210057  0.75704531  0.27399214    -0.18800
C3077       C  0.40189403  0.74634296  0.27454996    -0.28200
C3078       C  0.40115741  0.74055753  0.26550668     0.44700
C3079       C  0.40040970  0.76143540  0.24525114     0.05900
O3080       O  0.40239973  0.77249963  0.26422793    -0.56700
H3081       H  0.40279110  0.76151855  0.28095059     0.18800
O3082       O  0.40095188  0.73006843  0.26591859    -0.63400
H3083       H  0.39990233  0.74095722  0.24910016     0.17300
C3084       C  0.40727477  0.75891322  0.23733654     0.29500
C3085       C  0.40691615  0.76422930  0.22801765    -0.24300
C3086       C  0.39988090  0.77221135  0.22646451    -0.23600
C3087       C  0.39287470  0.77459179  0.23429789     0.41000
C3088       C  0.39315327  0.76919276  0.24356970    -0.26100
O3089       O  0.41480727  0.75175935  0.23889467    -0.58000
H3090       H  0.41237080  0.76234257  0.22208196     0.16600
O3091       O  0.38625615  0.78267926  0.23324557    -0.59400
H3092       H  0.38779427  0.77121557  0.24955625     0.15100
H3093       H  0.39359964  0.72823694  0.26612496     0.46900
H3094       H  0.41254953  0.74559740  0.23507749     0.42300
H3095       H  0.37931689  0.77959730  0.23300783     0.45700
H3096       H  0.40980258  0.77400422  0.26349432     0.37200
C3097       C  0.45968271  0.78076818  0.21819086    -0.27000
C3098       C  0.45208461  0.78558847  0.22414954     0.02600
C3099       C  0.45536011  0.79283154  0.23159088     0.30700
C3100       C  0.46581313  0.79497569  0.23288009    -0.18800
C3101       C  0.47313912  0.79065029  0.22636883    -0.28200
C3102       C  0.46988621  0.78392028  0.21863804     0.44700
C3103       C  0.44091896  0.78375162  0.22178579     0.05900
O3104       O  0.44847841  0.79830718  0.23730088    -0.56700
H3105       H  0.46815216  0.80053060  0.23859529     0.18800
O3106       O  0.47641139  0.78096082  0.21098612    -0.63400
H3107       H  0.45771588  0.77488679  0.21270055     0.17300
C3108       C  0.43754410  0.78207403  0.21158833     0.29500
C3109       C  0.42718117  0.78085611  0.20941643    -0.24300
C3110       C  0.41970553  0.78213011  0.21697111    -0.23600
C3111       C  0.42286740  0.78389002  0.22713862     0.41000
C3112       C  0.43338596  0.78425294  0.22952612    -0.26100
O3113       O  0.44416009  0.78225227  0.20345963    -0.58000
H3114       H  0.42492734  0.77957323  0.20152361     0.16600
O3115       O  0.41582708  0.78619032  0.23457526    -0.59400
H3116       H  0.43556029  0.78525586  0.23745623     0.15100
H3117       H  0.47611451  0.78654295  0.20584585     0.46900
H3118       H  0.44508475  0.78959864  0.20180379     0.42300
H3119       H  0.41654013  0.78077322  0.23984251     0.45700
H3120       H  0.44647371  0.80418507  0.23292375     0.37200
C3121       C  0.45708168  0.72881970  0.26631761    -0.27000
C3122       C  0.45193010  0.72718266  0.27558312     0.02600
C3123       C  0.45720524  0.72269396  0.28383939     0.30700
C3124       C  0.46742616  0.71980918  0.28275787    -0.18800
C3125       C  0.47262113  0.72127488  0.27347798    -0.28200
C3126       C  0.46731627  0.72574431  0.26516264     0.44700
C3127       C  0.44094800  0.72973443  0.27665453     0.05900
O3128       O  0.45237520  0.72098577  0.29299420    -0.56700
H3129       H  0.47131667  0.71636762  0.28923531     0.18800
O3130       O  0.47187818  0.72679214  0.25578432    -0.63400
H3131       H  0.45305723  0.73217046  0.25987684     0.17300
C3132       C  0.43757318  0.73997208  0.27718070     0.29500
C3133       C  0.42743466  0.74213902  0.28000320    -0.24300
C3134       C  0.42067157  0.73416039  0.28243397    -0.23600
C3135       C  0.42391268  0.72394658  0.28133623     0.41000
C3136       C  0.43395624  0.72179139  0.27839060    -0.26100
O3137       O  0.44427208  0.74788242  0.27556920    -0.58000
H3138       H  0.42506993  0.75003468  0.28098226     0.16600
O3139       O  0.41736724  0.71601920  0.28345057    -0.59400
H3140       H  0.43644984  0.71388453  0.27795807     0.15100
H3141       H  0.47087163  0.72013049  0.25230503     0.46900
H3142       H  0.44745324  0.74923029  0.28235703     0.42300
H3143       H  0.41912425  0.71379884  0.29050214     0.45700
H3144       H  0.45317418  0.72745240  0.29691035     0.37200
C3145       C  0.49513582  0.74339178  0.24957213    -0.27000
C3146       C  0.49078697  0.75194592  0.25444278     0.02600
C3147       C  0.48651852  0.75070798  0.26429660     0.30700
C3148       C  0.48708376  0.74114913  0.26920827    -0.18800
C3149       C  0.49147053  0.73268354  0.26425426    -0.28200
C3150       C  0.49515019  0.73381227  0.25423343     0.44700
C3151       C  0.49051340  0.76186415  0.24882297     0.05900
O3152       O  0.48118839  0.75854440  0.26884370    -0.56700
H3153       H  0.48385059  0.74025707  0.27678224     0.18800
O3154       O  0.49827856  0.72547284  0.24869954    -0.63400
H3155       H  0.49836486  0.74405132  0.24197018     0.17300
C3156       C  0.49345297  0.77119889  0.25344728     0.29500
C3157       C  0.49358118  0.78023707  0.24766961    -0.24300
C3158       C  0.49139095  0.78005366  0.23715104    -0.23600
C3159       C  0.48911434  0.77066886  0.23243344     0.41000
C3160       C  0.48821779  0.76180320  0.23829975    -0.26100
O3161       O  0.49663633  0.77153784  0.26345048    -0.58000
H3162       H  0.49566955  0.78738735  0.25132963     0.16600
O3163       O  0.48834996  0.76993917  0.22201906    -0.59400
H3164       H  0.48611387  0.75474340  0.23447299     0.15100
H3165       H  0.49199738  0.72273542  0.24545566     0.46900
H3166       H  0.50405855  0.77000320  0.26323919     0.42300
H3167       H  0.49517286  0.76760363  0.21965599     0.45700
H3168       H  0.48482958  0.76003074  0.27535646     0.37200
C3169       C  0.54864917  0.79247772  0.23382401    -0.27000
C3170       C  0.54229587  0.79109541  0.24234000     0.02600
C3171       C  0.54668581  0.79091451  0.25221692     0.30700
C3172       C  0.55721038  0.79278646  0.25347858    -0.18800
C3173       C  0.56334865  0.79505452  0.24498091    -0.28200
C3174       C  0.55904831  0.79463124  0.23509993     0.44700
C3175       C  0.53105411  0.79139147  0.24074330     0.05900
O3176       O  0.54068794  0.78921933  0.26065363    -0.56700
H3177       H  0.56040676  0.79322629  0.26113036     0.18800
O3178       O  0.56487192  0.79687876  0.22667141    -0.63400
H3179       H  0.54538465  0.79267428  0.22618920     0.17300
C3180       C  0.52535674  0.79992310  0.24409658     0.29500
C3181       C  0.51511739  0.80105583  0.24113154    -0.24300
C3182       C  0.51039487  0.79381788  0.23473528    -0.23600
C3183       C  0.51605442  0.78524708  0.23143106     0.41000
C3184       C  0.52629078  0.78405936  0.23447027    -0.26100
O3185       O  0.52989204  0.80749977  0.24979973    -0.58000
H3186       H  0.51092731  0.80778312  0.24358914     0.16600
O3187       O  0.51186829  0.77833010  0.22472861    -0.59400
H3188       H  0.53065741  0.77762746  0.23157406     0.15100
H3189       H  0.56348435  0.80420224  0.22517157     0.46900
H3190       H  0.53316053  0.81211437  0.24473665     0.42300
H3191       H  0.51322691  0.78116806  0.21781468     0.45700
H3192       H  0.53999053  0.79598315  0.26404766     0.37200
C3193       C  0.54829746  0.71250983  0.26350419    -0.27000
C3194       C  0.54356457  0.72137448  0.26733382     0.02600
C3195       C  0.54983156  0.72922830  0.27140124     0.30700
C3196       C  0.56048140  0.72783206  0.27212569    -0.18800
C3197       C  0.56509428  0.71880524  0.26852438    -0.28200
C3198       C  0.55888692  0.71133925  0.26378649     0.44700
C3199       C  0.53213036  0.72187653  0.26754035     0.05900
O3200       O  0.54563688  0.73816186  0.27499318    -0.56700
H3201       H  0.56499091  0.73360219  0.27596410     0.18800
O3202       O  0.56307224  0.70254780  0.25983071    -0.63400
H3203       H  0.54376351  0.70621802  0.26056779     0.17300
C3204       C  0.52624948  0.71811716  0.25924693     0.29500
C3205       C  0.51570592  0.71670746  0.26029963    -0.24300
C3206       C  0.51064630  0.71971987  0.26923959    -0.23600
C3207       C  0.51632965  0.72405655  0.27730540     0.41000
C3208       C  0.52699109  0.72501438  0.27648009    -0.26100
O3209       O  0.53077324  0.71543625  0.25016522    -0.58000
H3210       H  0.51153344  0.71294687  0.25419548     0.16600
O3211       O  0.51157885  0.72693035  0.28621300    -0.59400
H3212       H  0.53126106  0.72772955  0.28305636     0.15100
H3213       H  0.56527974  0.70439685  0.25281166     0.46900
H3214       H  0.53147445  0.72193154  0.24631770     0.42300
H3215       H  0.51207428  0.72088527  0.29077575     0.45700
H3216       H  0.54379335  0.74214054  0.26879449     0.37200
C3217       C  0.58449515  0.75033988  0.27021741    -0.27000
C3218       C  0.58577862  0.75292298  0.25981327     0.02600
C3219       C  0.58722080  0.74483171  0.25269715     0.30700
C3220       C  0.58667469  0.73455167  0.25593892    -0.18800
C3221       C  0.58517410  0.73212429  0.26626204    -0.28200
C3222       C  0.58445960  0.74009749  0.27345241     0.44700
C3223       C  0.58551866  0.76402526  0.25663430     0.05900
O3224       O  0.58978900  0.74688545  0.24271655    -0.56700
H3225       H  0.58753170  0.72844414  0.25039111     0.18800
O3226       O  0.58336680  0.73792333  0.28366398    -0.63400
H3227       H  0.58339748  0.75628108  0.27590140     0.17300
C3228       C  0.58014873  0.76732171  0.24780896     0.29500
C3229       C  0.57982285  0.77772704  0.24520290    -0.24300
C3230       C  0.58408886  0.78525740  0.25159948    -0.23600
C3231       C  0.58918929  0.78208122  0.26057400     0.41000
C3232       C  0.59009666  0.77159117  0.26287706    -0.26100
O3233       O  0.57468834  0.76056100  0.24191188    -0.58000
H3234       H  0.57586649  0.77995689  0.23826770     0.16600
O3235       O  0.59299475  0.78914437  0.26735639    -0.59400
H3236       H  0.59420211  0.76939623  0.26974568     0.15100
H3237       H  0.59029590  0.73595216  0.28606007     0.46900
H3238       H  0.56812983  0.75957078  0.24557660     0.42300
H3239       H  0.58697804  0.79157682  0.27130634     0.45700
H3240       H  0.58451254  0.74347598  0.23842529     0.37200
C3241       C  0.63866976  0.70388175  0.26050239    -0.27000
C3242       C  0.63570355  0.71119082  0.26786518     0.02600
C3243       C  0.64326744  0.71543888  0.27429946     0.30700
C3244       C  0.65346376  0.71232961  0.27341154    -0.18800
C3245       C  0.65648350  0.70518340  0.26594619    -0.28200
C3246       C  0.64896358  0.70096717  0.25943246     0.44700
C3247       C  0.62471086  0.71404977  0.26908559     0.05900
O3248       O  0.64082866  0.72282052  0.28136899    -0.56700
H3249       H  0.65911510  0.71585028  0.27837140     0.18800
O3250       O  0.65155802  0.69400468  0.25200822    -0.63400
H3251       H  0.63297596  0.70035179  0.25560402     0.17300
C3252       C  0.61846317  0.71654455  0.26059949     0.29500
C3253       C  0.60791849  0.71813324  0.26191455    -0.24300
C3254       C  0.60346164  0.71736435  0.27164726    -0.23600
C3255       C  0.60979920  0.71552828  0.28018603     0.41000
C3256       C  0.62029086  0.71389201  0.27887667    -0.26100
O3257       O  0.62249461  0.71702987  0.25092757    -0.58000
H3258       H  0.60314204  0.71921815  0.25522272     0.16600
O3259       O  0.60567098  0.71485861  0.28982253    -0.59400
H3260       H  0.62487653  0.71195662  0.28551915     0.15100
H3261       H  0.65183872  0.68730297  0.25555997     0.46900
H3262       H  0.62561851  0.72392062  0.25043687     0.42300
H3263       H  0.60592591  0.70748767  0.29164208     0.45700
H3264       H  0.64070301  0.72934418  0.27748469     0.37200
C3265       C  0.67910617  0.77166170  0.26193393    -0.27000
C3266       C  0.68481879  0.76589210  0.25490616     0.02600
C3267       C  0.69015610  0.77096100  0.24704368     0.30700
C3268       C  0.68992708  0.78165642  0.24645393    -0.18800
C3269       C  0.68451289  0.78743808  0.25371202    -0.28200
C3270       C  0.67890126  0.78234717  0.26137008     0.44700
C3271       C  0.68532883  0.75461994  0.25600019     0.05900
O3272       O  0.69579010  0.76555280  0.24002942    -0.56700
H3273       H  0.69422452  0.78544995  0.24047352     0.18800
O3274       O  0.67310701  0.78772928  0.26827482    -0.63400
H3275       H  0.67476355  0.76785622  0.26787222     0.17300
C3276       C  0.68859642  0.75016252  0.26524670     0.29500
C3277       C  0.68894375  0.73950958  0.26621964    -0.24300
C3278       C  0.68606895  0.73307944  0.25805836    -0.23600
C3279       C  0.68297811  0.73758646  0.24870948     0.41000
C3280       C  0.68255453  0.74826875  0.24778262    -0.26100
O3281       O  0.69185084  0.75617310  0.27324427    -0.58000
H3282       H  0.69154065  0.73629488  0.27341667     0.16600
O3283       O  0.68010278  0.73167472  0.24050893    -0.59400
H3284       H  0.67997452  0.75161067  0.24063489     0.15100
H3285       H  0.66625880  0.78837077  0.26503052     0.46900
H3286       H  0.68624945  0.75596088  0.27833787     0.42300
H3287       H  0.68628666  0.73118758  0.23614701     0.45700
H3288       H  0.70230781  0.76390132  0.24356089     0.37200
C3289       C  0.73172706  0.81393677  0.26267974    -0.27000
C3290       C  0.73750616  0.81876328  0.25500162     0.02600
C3291       C  0.73227916  0.82322860  0.24664121     0.30700
C3292       C  0.72156460  0.82277739  0.24606473    -0.18800
C3293       C  0.71581727  0.81820680  0.25390484    -0.28200
C3294       C  0.72102554  0.81377233  0.26226881     0.44700
C3295       C  0.74890841  0.81921722  0.25593657     0.05900
O3296       O  0.73752906  0.82829317  0.23911176    -0.56700
H3297       H  0.71772375  0.82630535  0.23960562     0.18800
O3298       O  0.71574454  0.80919486  0.27008974    -0.63400
H3299       H  0.73552082  0.81024043  0.26906778     0.17300
C3300       C  0.75362149  0.82190988  0.26529786     0.29500
C3301       C  0.76428131  0.82185626  0.26620759    -0.24300
C3302       C  0.77057823  0.81937688  0.25784563    -0.23600
C3303       C  0.76590857  0.81698342  0.24838538     0.41000
C3304       C  0.75519139  0.81682768  0.24752113    -0.26100
O3305       O  0.74789795  0.82466656  0.27365228    -0.58000
H3306       H  0.76763333  0.82385563  0.27353807     0.16600
O3307       O  0.77169917  0.81461164  0.23996857    -0.59400
H3308       H  0.75179246  0.81462401  0.24027650     0.15100
H3309       H  0.71520501  0.80188195  0.26812204     0.46900
H3310       H  0.74584367  0.83186643  0.27239399     0.42300
H3311       H  0.77296222  0.80713976  0.24044692     0.45700
H3312       H  0.73813209  0.83545331  0.24158043     0.37200
C3313       C  0.63823536  0.81074719  0.26069295    -0.27000
C3314       C  0.63330563  0.80827332  0.25144881     0.02600
C3315       C  0.63899256  0.80880292  0.24229003     0.30700
C3316       C  0.64929691  0.81197498  0.24250578    -0.18800
C3317       C  0.65420443  0.81457992  0.25177899    -0.28200
C3318       C  0.64848919  0.81385033  0.26093720     0.44700
C3319       C  0.62203373  0.80623009  0.25155024     0.05900
O3320       O  0.63442888  0.80674217  0.23304416    -0.56700
H3321       H  0.65346492  0.81232146  0.23535721     0.18800
O3322       O  0.65285453  0.81595799  0.27026350    -0.63400
H3323       H  0.63405457  0.81034233  0.26783675     0.17300
C3324       C  0.61749338  0.79761614  0.24677525     0.29500
C3325       C  0.60676655  0.79646959  0.24667329    -0.24300
C3326       C  0.60043405  0.80372516  0.25146713    -0.23600
C3327       C  0.60507151  0.81192447  0.25681136     0.41000
C3328       C  0.61567300  0.81316687  0.25671297    -0.26100
O3329       O  0.62341920  0.79033963  0.24208519    -0.58000
H3330       H  0.60340390  0.79014746  0.24248144     0.16600
O3331       O  0.59925988  0.81906189  0.26187334    -0.59400
H3332       H  0.61893392  0.81978453  0.26052490     0.15100
H3333       H  0.65110869  0.82320574  0.27169187     0.46900
H3334       H  0.62576453  0.78577685  0.24767136     0.42300
H3335       H  0.59787907  0.81602367  0.26868211     0.45700
H3336       H  0.63757761  0.80023707  0.23063854     0.37200
C3337       C  0.75626230  0.70915399  0.26356385    -0.27000
C3338       C  0.75049265  0.70363975  0.25634629     0.02600
C3339       C  0.75563807  0.69841176  0.24841119     0.30700
C3340       C  0.76635187  0.69859204  0.24793067    -0.18800
C3341       C  0.77209061  0.70373264  0.25543538    -0.28200
C3342       C  0.76694382  0.70919965  0.26317968     0.44700
C3343       C  0.73915637  0.70332704  0.25727865     0.05900
O3344       O  0.75029540  0.69284914  0.24126964    -0.56700
H3345       H  0.77018854  0.69436612  0.24191371     0.18800
O3346       O  0.77228465  0.71464451  0.27041839    -0.63400
H3347       H  0.75246441  0.71344558  0.26955743     0.17300
C3348       C  0.73445577  0.70084179  0.26666489     0.29500
C3349       C  0.72379447  0.70075988  0.26745697    -0.24300
C3350       C  0.71757415  0.70306522  0.25897601    -0.23600
C3351       C  0.72226435  0.70565687  0.24961076     0.41000
C3352       C  0.73295256  0.70572204  0.24881309    -0.26100
O3353       O  0.74020750  0.69841838  0.27512590    -0.58000
H3354       H  0.72038719  0.69876445  0.27474264     0.16600
O3355       O  0.71651116  0.70837759  0.24124932    -0.59400
H3356       H  0.73641037  0.70787028  0.24159834     0.15100
H3357       H  0.77356777  0.72142891  0.26725636     0.46900
H3358       H  0.74151465  0.69096731  0.27458049     0.42300
H3359       H  0.71537726  0.71586615  0.24197789     0.45700
H3360       H  0.74951850  0.68593809  0.24430978     0.37200
C3361       C  0.80850625  0.74968653  0.25078240    -0.27000
C3362       C  0.80319280  0.75457141  0.25876543     0.02600
C3363       C  0.79799396  0.74849993  0.26601491     0.30700
C3364       C  0.79823166  0.73779288  0.26523336    -0.18800
C3365       C  0.80354205  0.73292516  0.25726721    -0.28200
C3366       C  0.80873550  0.73897402  0.25001441     0.44700
C3367       C  0.80292886  0.76597628  0.25928223     0.05900
O3368       O  0.79218409  0.75297302  0.27353519    -0.56700
H3369       H  0.79404906  0.73327968  0.27078260     0.18800
O3370       O  0.81417741  0.73451612  0.24222706    -0.63400
H3371       H  0.81258721  0.75420621  0.24516611     0.17300
C3372       C  0.80534754  0.77126141  0.26839298     0.29500
C3373       C  0.80451281  0.78193881  0.26882005    -0.24300
C3374       C  0.80172832  0.78764574  0.26012697    -0.23600
C3375       C  0.79975658  0.78240610  0.25087391     0.41000
C3376       C  0.80029409  0.77167538  0.25053200    -0.26100
O3377       O  0.80876549  0.76609988  0.27687993    -0.58000
H3378       H  0.80630977  0.78578848  0.27595463     0.16600
O3379       O  0.79720895  0.78765998  0.24214059    -0.59400
H3380       H  0.79852026  0.76778017  0.24341593     0.15100
H3381       H  0.82088389  0.73267732  0.24530123     0.46900
H3382       H  0.81625267  0.76537924  0.27590146     0.42300
H3383       H  0.78962573  0.78773213  0.24197767     0.45700
H3384       H  0.79546270  0.75098654  0.28012300     0.37200
C3385       C  0.11899542  0.77164079  0.29986710    -0.27000
C3386       C  0.12363374  0.76222145  0.29754163     0.02600
C3387       C  0.11749917  0.75419805  0.29362644     0.30700
C3388       C  0.10686776  0.75545726  0.29280873    -0.18800
C3389       C  0.10226442  0.76470411  0.29572277    -0.28200
C3390       C  0.10844003  0.77293107  0.29890624     0.44700
C3391       C  0.13472072  0.76078966  0.29978596     0.05900
O3392       O  0.12175239  0.74498093  0.29093307    -0.56700
H3393       H  0.10217480  0.74902643  0.29046771     0.18800
O3394       O  0.10413358  0.78220212  0.30138397    -0.63400
H3395       H  0.12347874  0.77791178  0.30293137     0.17300
C3396       C  0.14194578  0.76830044  0.29701915     0.29500
C3397       C  0.15220352  0.76716851  0.29981043    -0.24300
C3398       C  0.15560574  0.75850542  0.30523011    -0.23600
C3399       C  0.14840674  0.75094368  0.30796143     0.41000
C3400       C  0.13807348  0.75215544  0.30529282    -0.26100
O3401       O  0.13910188  0.77677640  0.29149515    -0.58000
H3402       H  0.15757234  0.77302548  0.29746167     0.16600
O3403       O  0.15134556  0.74236171  0.31325786    -0.59400
H3404       H  0.13263438  0.74639883  0.30771778     0.15100
H3405       H  0.10443119  0.78263291  0.30895489     0.46900
H3406       H  0.13873588  0.77443705  0.28428577     0.42300
H3407       H  0.14996229  0.74395345  0.32055344     0.45700
H3408       H  0.12452700  0.74604228  0.28395923     0.37200
C3409       C  0.11734647  0.74450582  0.20754466    -0.27000
C3410       C  0.12514680  0.73720939  0.20882284     0.02600
C3411       C  0.12284574  0.72789175  0.21375052     0.30700
C3412       C  0.11274895  0.72570570  0.21664959    -0.18800
C3413       C  0.10485625  0.73277085  0.21484377    -0.28200
C3414       C  0.10725821  0.74233442  0.21050805     0.44700
C3415       C  0.13552143  0.73918318  0.20458010     0.05900
O3416       O  0.13043701  0.72090104  0.21575454    -0.56700
H3417       H  0.11099640  0.71828890  0.21992287     0.18800
O3418       O  0.09963849  0.74918457  0.20820792    -0.63400
H3419       H  0.11898398  0.75170633  0.20377181     0.17300
C3420       C  0.13984944  0.73258734  0.19719672     0.29500
C3421       C  0.14983486  0.73424746  0.19366593    -0.24300
C3422       C  0.15555852  0.74266249  0.19712289    -0.23600
C3423       C  0.15107687  0.74948190  0.20423467     0.41000
C3424       C  0.14113771  0.74773365  0.20786160    -0.26100
O3425       O  0.13436719  0.72449050  0.19336398    -0.58000
H3426       H  0.15312429  0.72892700  0.18821688     0.16600
O3427       O  0.15650452  0.75762881  0.20805876    -0.59400
H3428       H  0.13791061  0.75291502  0.21348049     0.15100
H3429       H  0.09998964  0.75445085  0.21366733     0.46900
H3430       H  0.13039024  0.72735610  0.18755066     0.42300
H3431       H  0.16035656  0.75485858  0.21400596     0.45700
H3432       H  0.12914720  0.71507587  0.21105119     0.37200
C3433       C  0.08297460  0.75382729  0.24090492    -0.27000
C3434       C  0.08722354  0.74879737  0.24944842     0.02600
C3435       C  0.09211268  0.73929002  0.24800880     0.30700
C3436       C  0.09233630  0.73475127  0.23831243    -0.18800
C3437       C  0.08754025  0.73942779  0.22991690    -0.28200
C3438       C  0.08302521  0.74913432  0.23117823     0.44700
C3439       C  0.08597756  0.75299915  0.25997730     0.05900
O3440       O  0.09634624  0.73416671  0.25614775    -0.56700
H3441       H  0.09575605  0.72724317  0.23743284     0.18800
O3442       O  0.07859189  0.75398685  0.22298030    -0.63400
H3443       H  0.07923523  0.76117097  0.24186303     0.17300
C3444       C  0.09040592  0.76238238  0.26298068     0.29500
C3445       C  0.08956082  0.76576020  0.27318771    -0.24300
C3446       C  0.08431036  0.75986629  0.28048007    -0.23600
C3447       C  0.07999499  0.75046401  0.27747004     0.41000
C3448       C  0.08075146  0.74715191  0.26730865    -0.26100
O3449       O  0.09573584  0.76818228  0.25606406    -0.58000
H3450       H  0.09299844  0.77296671  0.27543675     0.16600
O3451       O  0.07526536  0.74430434  0.28450761    -0.59400
H3452       H  0.07738751  0.73987233  0.26516452     0.15100
H3453       H  0.07111662  0.75336243  0.22404568     0.46900
H3454       H  0.10281332  0.76544985  0.25624713     0.42300
H3455       H  0.08089451  0.74047981  0.28791999     0.45700
H3456       H  0.10344702  0.73675367  0.25665514     0.37200
C3457       C  0.02700180  0.77526357  0.28265669    -0.27000
C3458       C  0.03239894  0.77253827  0.29156089     0.02600
C3459       C  0.02779112  0.77415707  0.30118435     0.30700
C3460       C  0.01798985  0.77844463  0.30177163    -0.18800
C3461       C  0.01257366  0.78113393  0.29289341    -0.28200
C3462       C  0.01718886  0.77957165  0.28326498     0.44700
C3463       C  0.04317243  0.76897604  0.29084253     0.05900
O3464       O  0.03310153  0.77225741  0.31006482    -0.56700
H3465       H  0.01463615  0.77977485  0.30923675     0.18800
O3466       O  0.01236217  0.78255746  0.27442838    -0.63400
H3467       H  0.03050847  0.77424520  0.27521492     0.17300
C3468       C  0.04645994  0.75995626  0.29578072     0.29500
C3469       C  0.05693772  0.75782082  0.29659565    -0.24300
C3470       C  0.06420250  0.76452745  0.29247106    -0.23600
C3471       C  0.06090984  0.77303128  0.28675630     0.41000
C3472       C  0.05044456  0.77521567  0.28597519    -0.26100
O3473       O  0.03947454  0.75331055  0.29994190    -0.58000
H3474       H  0.05942534  0.75125287  0.30102263     0.16600
O3475       O  0.06786973  0.77987787  0.28293209    -0.59400
H3476       H  0.04805112  0.78218176  0.28215116     0.15100
H3477       H  0.01431642  0.78982383  0.27345097     0.46900
H3478       H  0.04107046  0.75298496  0.30736991     0.42300
H3479       H  0.06914386  0.77760411  0.27580600     0.45700
H3480       H  0.02929480  0.76669331  0.31357052     0.37200
C3481       C  0.02769859  0.74007264  0.22002772    -0.27000
C3482       C  0.03417696  0.73361417  0.22572303     0.02600
C3483       C  0.02969202  0.72662076  0.23265681     0.30700
C3484       C  0.01900448  0.72600578  0.23355036    -0.18800
C3485       C  0.01261755  0.73200166  0.22733761    -0.28200
C3486       C  0.01703285  0.73911633  0.22058948     0.44700
C3487       C  0.04544663  0.73358151  0.22369171     0.05900
O3488       O  0.03562634  0.71987993  0.23811041    -0.56700
H3489       H  0.01569569  0.72029669  0.23856538     0.18800
O3490       O  0.01097146  0.74465798  0.21401394    -0.63400
H3491       H  0.03090349  0.74561506  0.21477615     0.17300
C3492       C  0.04920613  0.73320463  0.21357771     0.29500
C3493       C  0.05971536  0.73233426  0.21178910    -0.24300
C3494       C  0.06677998  0.73157427  0.21988763    -0.23600
C3495       C  0.06305270  0.73204197  0.23001823     0.41000
C3496       C  0.05252684  0.73328721  0.23182738    -0.26100
O3497       O  0.04263239  0.73285980  0.20537117    -0.58000
H3498       H  0.06232701  0.73186002  0.20393174     0.16600
O3499       O  0.06943925  0.73069380  0.23823066    -0.59400
H3500       H  0.04985574  0.73365073  0.23966318     0.15100
H3501       H  0.01206094  0.75194192  0.21584987     0.46900
H3502       H  0.04340614  0.73955310  0.20186968     0.42300
H3503       H  0.06986040  0.72318403  0.23922710     0.45700
H3504       H  0.03692146  0.71407478  0.23336769     0.37200
C3505       C  0.99773259  0.75432725  0.24996003    -0.27000
C3506       C  0.99413771  0.75085347  0.25947539     0.02600
C3507       C  0.99118968  0.74049565  0.26046024     0.30700
C3508       C  0.99171571  0.73393698  0.25192742    -0.18800
C3509       C  0.99496141  0.73762519  0.24237369    -0.28200
C3510       C  0.99784051  0.74792228  0.24143836     0.44700
C3511       C  0.99285388  0.75850320  0.26783573     0.05900
O3512       O  0.98703366  0.73695044  0.26942043    -0.56700
H3513       H  0.98918862  0.72607030  0.25263610     0.18800
O3514       O  0.00007188  0.75199993  0.23205460    -0.63400
H3515       H  0.00005257  0.76223252  0.24898762     0.17300
C3516       C  0.99667261  0.75691806  0.27782889     0.29500
C3517       C  0.99619510  0.76484715  0.28506746    -0.24300
C3518       C  0.99247141  0.77457359  0.28234546    -0.23600
C3519       C  0.98882026  0.77616308  0.27235140     0.41000
C3520       C  0.98863586  0.76809816  0.26536525    -0.26100
O3521       O  0.00141254  0.74792200  0.28044780    -0.58000
H3522       H  0.99925244  0.76358974  0.29268001     0.16600
O3523       O  0.98621065  0.78575787  0.26903582    -0.59400
H3524       H  0.98570795  0.76955162  0.25773245     0.15100
H3525       H  0.99338343  0.75424882  0.22919841     0.46900
H3526       H  0.00866260  0.74882928  0.27843091     0.42300
H3527       H  0.99277232  0.78911515  0.26723974     0.45700
H3528       H  0.99188850  0.73169705  0.27199947     0.37200
C3529       C  0.86974734  0.80419184  0.26800390    -0.27000
C3530       C  0.86212288  0.80491919  0.27556734     0.02600
C3531       C  0.86486424  0.80303616  0.28586388     0.30700
C3532       C  0.87507113  0.80108442  0.28847435    -0.18800
C3533       C  0.88275555  0.80090143  0.28099059    -0.28200
C3534       C  0.88000369  0.80227347  0.27065797     0.44700
C3535       C  0.85146057  0.80801106  0.27276209     0.05900
O3536       O  0.85772978  0.80358269  0.29352981    -0.56700
H3537       H  0.87709005  0.80017644  0.29647861     0.18800
O3538       O  0.88734779  0.80237935  0.26318098    -0.63400
H3539       H  0.86779785  0.80543026  0.26003320     0.17300
C3540       C  0.84946849  0.81680303  0.26673890     0.29500
C3541       C  0.83934385  0.81962558  0.26434481    -0.24300
C3542       C  0.83107400  0.81401703  0.26823471    -0.23600
C3543       C  0.83307514  0.80529379  0.27429292     0.41000
C3544       C  0.84314223  0.80231739  0.27641999    -0.26100
O3545       O  0.85734263  0.82286023  0.26339250    -0.58000
H3546       H  0.83795239  0.82637379  0.25972440     0.16600
O3547       O  0.82518870  0.79951126  0.27808495    -0.59400
H3548       H  0.84443930  0.79548720  0.28094778     0.15100
H3549       H  0.88891815  0.80972013  0.26204460     0.46900
H3550       H  0.85908242  0.82732460  0.26930342     0.42300
H3551       H  0.82428993  0.79385255  0.27310586     0.45700
H3552       H  0.85755549  0.81089280  0.29559513     0.37200
C3553       C  0.93885946  0.80256717  0.28349708    -0.27000
C3554       C  0.94245420  0.79256230  0.28513370     0.02600
C3555       C  0.93515167  0.78458910  0.28593862     0.30700
C3556       C  0.92458672  0.78681436  0.28571280    -0.18800
C3557       C  0.92108993  0.79689851  0.28423573    -0.28200
C3558       C  0.92840579  0.80470652  0.28276755     0.44700
C3559       C  0.95376524  0.79078659  0.28630192     0.05900
O3560       O  0.93821948  0.77460917  0.28707119    -0.56700
H3561       H  0.91915930  0.78068606  0.28696754     0.18800
O3562       O  0.92537408  0.81452809  0.28050287    -0.63400
H3563       H  0.94415513  0.80891611  0.28301315     0.17300
C3564       C  0.96089678  0.79606651  0.28010352     0.29500
C3565       C  0.97138020  0.79551698  0.28223433    -0.24300
C3566       C  0.97513806  0.78914469  0.28999200    -0.23600
C3567       C  0.96816951  0.78358457  0.29599541     0.41000
C3568       C  0.95758941  0.78448507  0.29420590    -0.26100
O3569       O  0.95772197  0.80193873  0.27199380    -0.58000
H3570       H  0.97660854  0.80018439  0.27782504     0.16600
O3571       O  0.97161351  0.77752829  0.30386135    -0.59400
H3572       H  0.95237963  0.78053852  0.29927885     0.15100
H3573       H  0.92741227  0.81875941  0.28647732     0.46900
H3574       H  0.95732026  0.79714982  0.26611134     0.42300
H3575       H  0.97184127  0.78208081  0.30993777     0.45700
H3576       H  0.94020337  0.77233390  0.28010632     0.37200
C3577       C  0.87222716  0.70697067  0.26384375    -0.27000
C3578       C  0.86550526  0.71288108  0.25788976     0.02600
C3579       C  0.86945456  0.72126269  0.25232708     0.30700
C3580       C  0.88006450  0.72303658  0.25209812    -0.18800
C3581       C  0.88681131  0.71649752  0.25731114    -0.28200
C3582       C  0.88276595  0.70873818  0.26360589     0.44700
C3583       C  0.85451035  0.70990972  0.25736842     0.05900
O3584       O  0.86300073  0.72771471  0.24710208    -0.56700
H3585       H  0.88303630  0.72905323  0.24723979     0.18800
O3586       O  0.88913242  0.70237082  0.26902349    -0.63400
H3587       H  0.86934868  0.70060706  0.26830864     0.17300
C3588       C  0.84957903  0.70800903  0.24793494     0.29500
C3589       C  0.83924847  0.70509217  0.24770354    -0.24300
C3590       C  0.83365604  0.70378209  0.25681041    -0.23600
C3591       C  0.83880116  0.70518960  0.26626031     0.41000
C3592       C  0.84907392  0.70823205  0.26645665    -0.26100
O3593       O  0.85480796  0.70885508  0.23888442    -0.58000
H3594       H  0.83558894  0.70397140  0.24033602     0.16600
O3595       O  0.83388781  0.70368292  0.27540201    -0.59400
H3596       H  0.85279054  0.70940357  0.27379149     0.15100
H3597       H  0.89006414  0.70575706  0.27575684     0.46900
H3598       H  0.85783687  0.70199357  0.23768635     0.42300
H3599       H  0.83168178  0.71059834  0.27764926     0.45700
H3600       H  0.86469282  0.72682600  0.23974510     0.37200
C3601       C  0.93946544  0.73036620  0.25206919    -0.27000
C3602       C  0.94322991  0.72911147  0.24208413     0.02600
C3603       C  0.93634372  0.72696330  0.23406405     0.30700
C3604       C  0.92605448  0.72508452  0.23621558    -0.18800
C3605       C  0.92242238  0.72547767  0.24630496    -0.28200
C3606       C  0.92909350  0.72855380  0.25421438     0.44700
C3607       C  0.95438428  0.72868858  0.24015402     0.05900
O3608       O  0.93975057  0.72596162  0.22418612    -0.56700
H3609       H  0.92102097  0.72264520  0.23007343     0.18800
O3610       O  0.92575479  0.72899924  0.26415307    -0.63400
H3611       H  0.94468766  0.73206441  0.25829624     0.17300
C3612       C  0.96054312  0.73751482  0.24038819     0.29500
C3613       C  0.97083173  0.73693763  0.23733163    -0.24300
C3614       C  0.97510448  0.72755686  0.23416962    -0.23600
C3615       C  0.96903446  0.71865169  0.23453631     0.41000
C3616       C  0.95876644  0.71927755  0.23740391    -0.26100
O3617       O  0.95648739  0.74676978  0.24324895    -0.58000
H3618       H  0.97531793  0.74389632  0.23702751     0.16600
O3619       O  0.97301700  0.70929923  0.23187710    -0.59400
H3620       H  0.95413053  0.71239823  0.23731653     0.15100
H3621       H  0.92663244  0.72197287  0.26687814     0.46900
H3622       H  0.95377911  0.74982434  0.23684530     0.42300
H3623       H  0.97672049  0.70688603  0.23806766     0.45700
H3624       H  0.94070081  0.73308299  0.22169128     0.37200
C3625       C  0.89371812  0.76848943  0.27492161    -0.27000
C3626       C  0.90079165  0.76580878  0.26729382     0.02600
C3627       C  0.90763903  0.77340818  0.26377037     0.30700
C3628       C  0.90751454  0.78328223  0.26807772    -0.18800
C3629       C  0.90085963  0.78570503  0.27614590    -0.28200
C3630       C  0.89388657  0.77818156  0.27949938     0.44700
C3631       C  0.90130110  0.75496063  0.26356632     0.05900
O3632       O  0.91476113  0.77118272  0.25640726    -0.56700
H3633       H  0.91288085  0.78896971  0.26535705     0.18800
O3634       O  0.88749942  0.78003074  0.28760048    -0.63400
H3635       H  0.88821833  0.76291495  0.27761788     0.17300
C3636       C  0.90118074  0.74666088  0.27054009     0.29500
C3637       C  0.90174959  0.73654972  0.26696859    -0.24300
C3638       C  0.90282805  0.73447295  0.25651067    -0.23600
C3639       C  0.90296658  0.74265524  0.24952280     0.41000
C3640       C  0.90208742  0.75278723  0.25303289    -0.26100
O3641       O  0.90084783  0.74833236  0.28090616    -0.58000
H3642       H  0.90175450  0.73028941  0.27240746     0.16600
O3643       O  0.90399531  0.74079819  0.23924363    -0.59400
H3644       H  0.90202528  0.75895230  0.24749163     0.15100
H3645       H  0.89165926  0.77861773  0.29379871     0.46900
H3646       H  0.90807646  0.74926914  0.28302438     0.42300
H3647       H  0.89691006  0.74017906  0.23659553     0.45700
H3648       H  0.92081762  0.76863823  0.26021686     0.37200
C3649       C  0.78126035  0.63605367  0.24804147    -0.27000
C3650       C  0.79055416  0.63925831  0.25249428     0.02600
C3651       C  0.79763321  0.63173227  0.25561044     0.30700
C3652       C  0.79563982  0.62135339  0.25378693    -0.18800
C3653       C  0.78672249  0.61818416  0.24866653    -0.28200
C3654       C  0.77935949  0.62562951  0.24602368     0.44700
C3655       C  0.79318746  0.65038962  0.25320313     0.05900
O3656       O  0.80683910  0.63446190  0.25986301    -0.56700
H3657       H  0.80142678  0.61576507  0.25582853     0.18800
O3658       O  0.77061168  0.62292467  0.24088366    -0.63400
H3659       H  0.77562854  0.64168979  0.24573378     0.17300
C3660       C  0.79275288  0.65675749  0.24449605     0.29500
C3661       C  0.79577539  0.66705390  0.24515158    -0.24300
C3662       C  0.79920453  0.67132013  0.25444775    -0.23600
C3663       C  0.79973467  0.66489948  0.26315044     0.41000
C3664       C  0.79671143  0.65459149  0.26248287    -0.26100
O3665       O  0.78976968  0.65288157  0.23518686    -0.58000
H3666       H  0.79526058  0.67175332  0.23833672     0.16600
O3667       O  0.80314667  0.66858677  0.27238184    -0.59400
H3668       H  0.79712112  0.64984752  0.26927465     0.15100
H3669       H  0.77238354  0.62333235  0.23352068     0.46900
H3670       H  0.78276990  0.65557978  0.23402907     0.42300
H3671       H  0.81066876  0.66756360  0.27227539     0.45700
H3672       H  0.81165939  0.63490120  0.25401661     0.37200
C3673       C  0.69591148  0.65765953  0.27750917    -0.27000
C3674       C  0.69719487  0.65136074  0.26889480     0.02600
C3675       C  0.69520007  0.65546634  0.25911447     0.30700
C3676       C  0.69204680  0.66569262  0.25807062    -0.18800
C3677       C  0.69079576  0.67206984  0.26669097    -0.28200
C3678       C  0.69271733  0.66786951  0.27650042     0.44700
C3679       C  0.69976129  0.64032692  0.27031097     0.05900
O3680       O  0.69634401  0.64955533  0.25050219    -0.56700
H3681       H  0.69074056  0.66866921  0.25043812     0.18800
O3682       O  0.69162253  0.67366353  0.28519454    -0.63400
H3683       H  0.69718944  0.65457968  0.28510741     0.17300
C3684       C  0.70848256  0.63714749  0.27586558     0.29500
C3685       C  0.70989442  0.62672330  0.27826825    -0.24300
C3686       C  0.70262891  0.61938943  0.27525685    -0.23600
C3687       C  0.69426943  0.62253868  0.26916416     0.41000
C3688       C  0.69288875  0.63288847  0.26676275    -0.26100
O3689       O  0.71562274  0.64418644  0.27899886    -0.58000
H3690       H  0.71637208  0.62446326  0.28293669     0.16600
O3691       O  0.68711421  0.61557950  0.26589451    -0.59400
H3692       H  0.68614688  0.63516472  0.26248964     0.15100
H3693       H  0.68439665  0.67273653  0.28728181     0.46900
H3694       H  0.71435257  0.64521869  0.28640674     0.42300
H3695       H  0.68940624  0.61344499  0.25898412     0.45700
H3696       H  0.70377949  0.64961075  0.24903505     0.37200
C3697       C  0.73907372  0.59999206  0.27565928    -0.27000
C3698       C  0.74010833  0.60407215  0.26575368     0.02600
C3699       C  0.73133707  0.60825907  0.26095818     0.30700
C3700       C  0.72175886  0.60754509  0.26567473    -0.18800
C3701       C  0.72073980  0.60330760  0.27549763    -0.28200
C3702       C  0.72963104  0.60000638  0.28066735     0.44700
C3703       C  0.75017792  0.60352847  0.26034891     0.05900
O3704       O  0.73197257  0.61297933  0.25159859    -0.56700
H3705       H  0.71507858  0.61020469  0.26155325     0.18800
O3706       O  0.72920743  0.59672315  0.29062297    -0.63400
H3707       H  0.74555633  0.59660680  0.27954808     0.17300
C3708       C  0.75953400  0.60552871  0.26544570     0.29500
C3709       C  0.76882483  0.60462076  0.26016857    -0.24300
C3710       C  0.76901984  0.60179889  0.24981619    -0.23600
C3711       C  0.75973526  0.60004252  0.24465964     0.41000
C3712       C  0.75047426  0.60068219  0.24994797    -0.26100
O3713       O  0.75967500  0.60874904  0.27545230    -0.58000
H3714       H  0.77593262  0.60606864  0.26419065     0.16600
O3715       O  0.75961807  0.59779070  0.23440403    -0.59400
H3716       H  0.74349525  0.59885018  0.24586520     0.15100
H3717       H  0.72964545  0.60302789  0.29482516     0.46900
H3718       H  0.76296290  0.60309917  0.27937036     0.42300
H3719       H  0.76025085  0.60449673  0.23089067     0.45700
H3720       H  0.73509772  0.61975307  0.25299125     0.37200
C3721       C  0.77744135  0.54508456  0.22971358    -0.27000
C3722       C  0.76881249  0.55095655  0.23220730     0.02600
C3723       C  0.75913174  0.54623719  0.23223214     0.30700
C3724       C  0.75813805  0.53592558  0.22922215    -0.18800
C3725       C  0.76675597  0.53017378  0.22630495    -0.28200
C3726       C  0.77648305  0.53478381  0.22684122     0.44700
C3727       C  0.77013763  0.56211632  0.23405661     0.05900
O3728       O  0.75056498  0.55176654  0.23468403    -0.56700
H3729       H  0.75059436  0.53252191  0.22885349     0.18800
O3730       O  0.78513014  0.52918586  0.22480053    -0.63400
H3731       H  0.78496270  0.54856616  0.22985101     0.17300
C3732       C  0.76999843  0.56632053  0.24400439     0.29500
C3733       C  0.77308154  0.57653935  0.24562456    -0.24300
C3734       C  0.77639201  0.58260927  0.23738687    -0.23600
C3735       C  0.77587077  0.57855039  0.22738537     0.41000
C3736       C  0.77281802  0.56840393  0.22579472    -0.26100
O3737       O  0.76739038  0.56035303  0.25222784    -0.58000
H3738       H  0.77350160  0.57949441  0.25336889     0.16600
O3739       O  0.77884784  0.58430218  0.21912808    -0.59400
H3740       H  0.77293943  0.56528808  0.21809950     0.15100
H3741       H  0.78744034  0.53147814  0.21796776     0.46900
H3742       H  0.77387138  0.55713655  0.25451425     0.42300
H3743       H  0.77293917  0.58883179  0.21760130     0.45700
H3744       H  0.74947507  0.55051453  0.24209158     0.37200
C3745       C  0.71125836  0.54673137  0.29552181    -0.27000
C3746       C  0.71978960  0.55200204  0.29171858     0.02600
C3747       C  0.72898675  0.54656200  0.29019091     0.30700
C3748       C  0.72953841  0.53605319  0.29266592    -0.18800
C3749       C  0.72097965  0.53087795  0.29663782    -0.28200
C3750       C  0.71181322  0.53635156  0.29804734     0.44700
C3751       C  0.71880752  0.56326082  0.29007233     0.05900
O3752       O  0.73757986  0.55155521  0.28685870    -0.56700
H3753       H  0.73671055  0.53201407  0.29170248     0.18800
O3754       O  0.70322514  0.53152577  0.30164562    -0.63400
H3755       H  0.70409491  0.55075019  0.29666499     0.17300
C3756       C  0.71982571  0.56782095  0.28032904     0.29500
C3757       C  0.71658523  0.57801232  0.27876439    -0.24300
C3758       C  0.71236298  0.58373707  0.28684730    -0.23600
C3759       C  0.71203612  0.57935820  0.29669740     0.41000
C3760       C  0.71530437  0.56928126  0.29824762    -0.26100
O3761       O  0.72310809  0.56213722  0.27213550    -0.58000
H3762       H  0.71682741  0.58122661  0.27112378     0.16600
O3763       O  0.70836202  0.58486523  0.30486081    -0.59400
H3764       H  0.71459875  0.56596026  0.30581804     0.15100
H3765       H  0.70250663  0.53383614  0.30884861     0.46900
H3766       H  0.73012310  0.56462582  0.27069018     0.42300
H3767       H  0.70156191  0.58188947  0.30639540     0.45700
H3768       H  0.73873067  0.54904315  0.27977981     0.37200
C3769       C  0.72982497  0.51779261  0.26613326    -0.27000
C3770       C  0.73923010  0.51278245  0.26471970     0.02600
C3771       C  0.74374400  0.50755510  0.27301103     0.30700
C3772       C  0.73901784  0.50759384  0.28255114    -0.18800
C3773       C  0.72957569  0.51245513  0.28395853    -0.28200
C3774       C  0.72490512  0.51750432  0.27563764     0.44700
C3775       C  0.74438740  0.51297742  0.25465083     0.05900
O3776       O  0.75273553  0.50226816  0.27183896    -0.56700
H3777       H  0.74268691  0.50370159  0.28889363     0.18800
O3778       O  0.71552765  0.52208922  0.27667433    -0.63400
H3779       H  0.72628271  0.52190775  0.25985848     0.17300
C3780       C  0.73934742  0.50973885  0.24566297     0.29500
C3781       C  0.74470598  0.50928209  0.23640189    -0.24300
C3782       C  0.75505651  0.51203775  0.23598696    -0.23600
C3783       C  0.76007494  0.51525270  0.24496596     0.41000
C3784       C  0.75470534  0.51587845  0.25415368    -0.26100
O3785       O  0.72936396  0.50653486  0.24596398    -0.58000
H3786       H  0.74080023  0.50677826  0.22951793     0.16600
O3787       O  0.77029789  0.51756751  0.24487106    -0.59400
H3788       H  0.75868066  0.51843489  0.26098347     0.15100
H3789       H  0.71051106  0.51640305  0.27662472     0.46900
H3790       H  0.72532532  0.51227976  0.24306547     0.42300
H3791       H  0.77384224  0.51098989  0.24625004     0.45700
H3792       H  0.75070713  0.49544487  0.26918436     0.37200
C3793       C  0.74426790  0.45496732  0.22002411    -0.27000
C3794       C  0.75360077  0.46002381  0.22182359     0.02600
C3795       C  0.76263856  0.45410977  0.22237315     0.30700
C3796       C  0.76230385  0.44348507  0.22067416    -0.18800
C3797       C  0.75303899  0.43854277  0.21844727    -0.28200
C3798       C  0.74396586  0.44434869  0.21825214     0.44700
C3799       C  0.75403618  0.47148190  0.22213416     0.05900
O3800       O  0.77193333  0.45871728  0.22395454    -0.56700
H3801       H  0.76938441  0.43917039  0.22055463     0.18800
O3802       O  0.73483782  0.43979807  0.21577201    -0.63400
H3803       H  0.73723217  0.45933022  0.21959349     0.17300
C3804       C  0.75041598  0.47736591  0.21382313     0.29500
C3805       C  0.75220704  0.48796373  0.21350863    -0.24300
C3806       C  0.75741348  0.49299034  0.22148749    -0.23600
C3807       C  0.76046936  0.48723223  0.23010171     0.41000
C3808       C  0.75884256  0.47657063  0.23033576    -0.26100
O3809       O  0.74587346  0.47271104  0.20556150    -0.58000
H3810       H  0.74987339  0.49222466  0.20677683     0.16600
O3811       O  0.76588954  0.49175604  0.23788244    -0.59400
H3812       H  0.76165819  0.47220582  0.23680809     0.15100
H3813       H  0.73432942  0.44029829  0.20820283     0.46900
H3814       H  0.73843742  0.47389996  0.20644425     0.42300
H3815       H  0.76117778  0.49184311  0.24383268     0.45700
H3816       H  0.77430189  0.46080425  0.21704807     0.37200
C3817       C  0.71892022  0.45513173  0.29133737    -0.27000
C3818       C  0.72823826  0.46032026  0.29016726     0.02600
C3819       C  0.73738369  0.45459950  0.28980694     0.30700
C3820       C  0.73717058  0.44393925  0.29129360    -0.18800
C3821       C  0.72791330  0.43891671  0.29332303    -0.28200
C3822       C  0.71872866  0.44453772  0.29301774     0.44700
C3823       C  0.72838272  0.47164161  0.29138642     0.05900
O3824       O  0.74661042  0.45946645  0.28875470    -0.56700
H3825       H  0.74430557  0.43972470  0.29162398     0.18800
O3826       O  0.70958728  0.43985105  0.29510807    -0.63400
H3827       H  0.71183362  0.45941746  0.29175769     0.17300
C3828       C  0.72317846  0.47822678  0.28458834     0.29500
C3829       C  0.72197272  0.48866020  0.28704450    -0.24300
C3830       C  0.72588725  0.49262954  0.29628181    -0.23600
C3831       C  0.73150480  0.48610973  0.30278824     0.41000
C3832       C  0.73276493  0.47575632  0.30029179    -0.26100
O3833       O  0.71900669  0.47447996  0.27569912    -0.58000
H3834       H  0.71765201  0.49355852  0.28192374     0.16600
O3835       O  0.73585730  0.48982887  0.31161018    -0.59400
H3836       H  0.73679592  0.47080277  0.30559758     0.15100
H3837       H  0.70708498  0.43728708  0.28840889     0.46900
H3838       H  0.72462861  0.47474011  0.27061324     0.42300
H3839       H  0.73157017  0.48716954  0.31725632     0.45700
H3840       H  0.74840808  0.45870335  0.28142413     0.37200
C3841       C  0.74667499  0.41364356  0.26925897    -0.27000
C3842       C  0.74033265  0.41779918  0.26160472     0.02600
C3843       C  0.73112885  0.42260534  0.26449173     0.30700
C3844       C  0.72828959  0.42299528  0.27479564    -0.18800
C3845       C  0.73462265  0.41889714  0.28245916    -0.28200
C3846       C  0.74394785  0.41429022  0.27962513     0.44700
C3847       C  0.74338819  0.41735635  0.25064817     0.05900
O3848       O  0.72492202  0.42710937  0.25730514    -0.56700
H3849       H  0.72111090  0.42658287  0.27683965     0.18800
O3850       O  0.75054784  0.41058982  0.28690706    -0.63400
H3851       H  0.75379415  0.40994254  0.26719711     0.17300
C3852       C  0.75279794  0.42141885  0.24735370     0.29500
C3853       C  0.75509059  0.42177300  0.23688348    -0.24300
C3854       C  0.74816479  0.41804415  0.22954644    -0.23600
C3855       C  0.73887589  0.41372958  0.23284739     0.41000
C3856       C  0.73657630  0.41335906  0.24331767    -0.26100
O3857       O  0.75953321  0.42560419  0.25425419    -0.58000
H3858       H  0.76226980  0.42508802  0.23444685     0.16600
O3859       O  0.73182911  0.41019674  0.22590695    -0.59400
H3860       H  0.72933465  0.41014026  0.24572068     0.15100
H3861       H  0.75411685  0.41669651  0.28966670     0.46900
H3862       H  0.76500859  0.42040785  0.25510126     0.42300
H3863       H  0.72818523  0.41638006  0.22342919     0.45700
H3864       H  0.72774709  0.43409329  0.25633722     0.37200
C3865       C  0.73363224  0.09716088  0.24619230    -0.27000
C3866       C  0.74297366  0.10130853  0.24952974     0.02600
C3867       C  0.74997991  0.10484668  0.24211105     0.30700
C3868       C  0.74766991  0.10400085  0.23161702    -0.18800
C3869       C  0.73836969  0.09972516  0.22834523    -0.28200
C3870       C  0.73125036  0.09652719  0.23575957     0.44700
C3871       C  0.74531550  0.10167374  0.26073374     0.05900
O3872       O  0.75909654  0.10914626  0.24503080    -0.56700
H3873       H  0.75319422  0.10656342  0.22601351     0.18800
O3874       O  0.72186756  0.09283169  0.23288340    -0.63400
H3875       H  0.72815697  0.09431050  0.25170535     0.17300
C3876       C  0.73827252  0.10583122  0.26779041     0.29500
C3877       C  0.74025589  0.10536487  0.27835816    -0.24300
C3878       C  0.74914954  0.10066116  0.28211493    -0.23600
C3879       C  0.75638291  0.09688301  0.27506145     0.41000
C3880       C  0.75441879  0.09734050  0.26449952    -0.26100
O3881       O  0.72948551  0.11049038  0.26440426    -0.58000
H3882       H  0.73464685  0.10836556  0.28366051     0.16600
O3883       O  0.76536394  0.09262322  0.27842302    -0.59400
H3884       H  0.75992550  0.09406163  0.25924711     0.15100
H3885       H  0.71766926  0.09899288  0.23139411     0.46900
H3886       H  0.72383891  0.10580250  0.26635122     0.42300
H3887       H  0.77032400  0.09834961  0.27862397     0.45700
H3888       H  0.75764004  0.11656147  0.24579865     0.37200
C3889       C  0.74736924  0.04311858  0.29940245    -0.27000
C3890       C  0.75284346  0.04730387  0.29118586     0.02600
C3891       C  0.75893301  0.04084252  0.28510315     0.30700
C3892       C  0.75969469  0.03038424  0.28744818    -0.18800
C3893       C  0.75453000  0.02625909  0.29592398    -0.28200
C3894       C  0.74827180  0.03271660  0.30187227     0.44700
C3895       C  0.75327184  0.05858252  0.29012926     0.05900
O3896       O  0.76448907  0.04477279  0.27712944    -0.56700
H3897       H  0.76467549  0.02558020  0.28288564     0.18800
O3898       O  0.74299488  0.02892021  0.31010435    -0.63400
H3899       H  0.74276904  0.04804454  0.30423760     0.17300
C3900       C  0.74444039  0.06439039  0.28797281     0.29500
C3901       C  0.74455516  0.07505811  0.28935888    -0.24300
C3902       C  0.75334926  0.07993374  0.29312666    -0.23600
C3903       C  0.76234680  0.07421396  0.29460223     0.41000
C3904       C  0.76229160  0.06362372  0.29301329    -0.26100
O3905       O  0.73558087  0.05964686  0.28493025    -0.58000
H3906       H  0.73755466  0.07938364  0.28831166     0.16600
O3907       O  0.77097168  0.07880598  0.29846099    -0.59400
H3908       H  0.76910352  0.05923743  0.29480379     0.15100
H3909       H  0.74672240  0.03143695  0.31623385     0.46900
H3910       H  0.73142126  0.05898212  0.29122551     0.42300
H3911       H  0.77567545  0.07946039  0.29255462     0.45700
H3912       H  0.76040444  0.04324887  0.27090700     0.37200
C3913       C  0.73771348  0.04162678  0.21209961    -0.27000
C3914       C  0.73327070  0.04661140  0.22050048     0.02600
C3915       C  0.72785365  0.04080269  0.22777500     0.30700
C3916       C  0.72648436  0.03023848  0.22628731    -0.18800
C3917       C  0.73043616  0.02536625  0.21754636    -0.28200
C3918       C  0.73627581  0.03110982  0.21055862     0.44700
C3919       C  0.73321024  0.05796212  0.22077089     0.05900
O3920       O  0.72349079  0.04546233  0.23610894    -0.56700
H3921       H  0.72189991  0.02595786  0.23169467     0.18800
O3922       O  0.74055379  0.02648722  0.20215099    -0.63400
H3923       H  0.74186404  0.04599782  0.20641601     0.17300
C3924       C  0.74235910  0.06365030  0.22109694     0.29500
C3925       C  0.74212085  0.07429934  0.21963139    -0.24300
C3926       C  0.73286818  0.07929009  0.21745775    -0.23600
C3927       C  0.72370054  0.07366774  0.21749463     0.41000
C3928       C  0.72390046  0.06310253  0.21928474    -0.26100
O3929       O  0.75156919  0.05881413  0.22251323    -0.58000
H3930       H  0.74924320  0.07853240  0.21940989     0.16600
O3931       O  0.71461702  0.07832910  0.21501717    -0.59400
H3932       H  0.71682677  0.05880372  0.21882810     0.15100
H3933       H  0.73643341  0.02883043  0.19622154     0.46900
H3934       H  0.75457372  0.05818505  0.21557413     0.42300
H3935       H  0.71075777  0.07877628  0.22153113     0.45700
H3936       H  0.72923520  0.04677668  0.24091420     0.37200
C3937       C  0.73157230  0.00208612  0.24960734    -0.27000
C3938       C  0.74142489  0.00607576  0.25116389     0.02600
C3939       C  0.74690294  0.00992576  0.24272477     0.30700
C3940       C  0.74241428  0.00992853  0.23298552    -0.18800
C3941       C  0.73242927  0.00627016  0.23153119    -0.28200
C3942       C  0.72698338  0.00238810  0.23995610     0.44700
C3943       C  0.74556069  0.00671309  0.26172037     0.05900
O3944       O  0.75653980  0.01388970  0.24393895    -0.56700
H3945       H  0.74669012  0.01287527  0.22653723     0.18800
O3946       O  0.71709016  0.99907998  0.23889263    -0.63400
H3947       H  0.72730836  0.99893839  0.25597071     0.17300
C3948       C  0.73966928  0.01115547  0.26958203     0.29500
C3949       C  0.74338840  0.01134911  0.27960154    -0.24300
C3950       C  0.75301209  0.00728251  0.28196209    -0.23600
C3951       C  0.75913028  0.00324746  0.27406287     0.41000
C3952       C  0.75532824  0.00283983  0.26403775    -0.26100
O3953       O  0.73040903  0.01564422  0.26745568    -0.58000
H3954       H  0.73870224  0.01461891  0.28560209     0.16600
O3955       O  0.76880153  0.99968127  0.27605087    -0.59400
H3956       H  0.75997860  0.99943196  0.25808421     0.15100
H3957       H  0.71283037  0.00532139  0.23952106     0.46900
H3958       H  0.72519947  0.01110445  0.27058091     0.42300
H3959       H  0.77294051  0.00584529  0.27764462     0.45700
H3960       H  0.75549045  0.02126675  0.24544483     0.37200
C3961       C  0.79519728  0.88888934  0.26351018    -0.27000
C3962       C  0.78919418  0.88097613  0.26757257     0.02600
C3963       C  0.78049187  0.88359521  0.27344468     0.30700
C3964       C  0.77834139  0.89390610  0.27571365    -0.18800
C3965       C  0.78477205  0.90172691  0.27218126    -0.28200
C3966       C  0.79304604  0.89915632  0.26577273     0.44700
C3967       C  0.79263576  0.87010534  0.26653281     0.05900
O3968       O  0.77429392  0.87610247  0.27737564    -0.56700
H3969       H  0.77199243  0.89574065  0.28070793     0.18800
O3970       O  0.79943584  0.90662897  0.26212512    -0.63400
H3971       H  0.80192489  0.88709712  0.25902840     0.17300
C3972       C  0.79519937  0.86573391  0.25698450     0.29500
C3973       C  0.79831455  0.85542709  0.25639024    -0.24300
C3974       C  0.79899143  0.84928438  0.26524204    -0.23600
C3975       C  0.79695299  0.85389787  0.27482814     0.41000
C3976       C  0.79376481  0.86412029  0.27537936    -0.26100
O3977       O  0.79447463  0.87138561  0.24816108    -0.58000
H3978       H  0.79989264  0.85216962  0.24892635     0.16600
O3979       O  0.79779957  0.84845120  0.28376274    -0.59400
H3980       H  0.79219911  0.86741665  0.28283104     0.15100
H3981       H  0.79578812  0.90962434  0.25616892     0.46900
H3982       H  0.78750124  0.87006181  0.24548796     0.42300
H3983       H  0.80499818  0.84937722  0.28599139     0.45700
H3984       H  0.76910662  0.87479194  0.27198843     0.37200
C3985       C  0.76648721  0.95034590  0.29354949    -0.27000
C3986       C  0.76556485  0.95709123  0.28525593     0.02600
C3987       C  0.76773096  0.95351943  0.27530655     0.30700
C3988       C  0.77135853  0.94346088  0.27387234    -0.18800
C3989       C  0.77290027  0.93695612  0.28230576    -0.28200
C3990       C  0.77020687  0.94039958  0.29214654     0.44700
C3991       C  0.76392159  0.96811207  0.28745928     0.05900
O3992       O  0.76713001  0.96003531  0.26709532    -0.56700
H3993       H  0.77355328  0.94095711  0.26627547     0.18800
O3994       O  0.77139999  0.93412239  0.30048540    -0.63400
H3995       H  0.76483037  0.95299692  0.30123671     0.17300
C3996       C  0.75442570  0.97296639  0.28589642     0.29500
C3997       C  0.75297759  0.98313197  0.28919914    -0.24300
C3998       C  0.76093919  0.98850620  0.29407760    -0.23600
C3999       C  0.77047185  0.98367907  0.29540233     0.41000
C4000       C  0.77191304  0.97360426  0.29206489    -0.26100
O4001       O  0.74641369  0.96769263  0.28162524    -0.58000
H4002       H  0.74557776  0.98673142  0.28817970     0.16600
O4003       O  0.77851700  0.98886308  0.29973948    -0.59400
H4004       H  0.77927311  0.96996832  0.29326082     0.15100
H4005       H  0.77797733  0.93618534  0.30364203     0.46900
H4006       H  0.74637886  0.96968112  0.27430647     0.42300
H4007       H  0.77895225  0.98631907  0.30687277     0.45700
H4008       H  0.76048918  0.95846800  0.26377744     0.37200
C4009       C  0.69273755  0.86515445  0.25933503    -0.27000
C4010       C  0.69404107  0.86967414  0.24968130     0.02600
C4011       C  0.69226489  0.86374636  0.24084151     0.30700
C4012       C  0.68928932  0.85350137  0.24171280    -0.18800
C4013       C  0.68799628  0.84887444  0.25135200    -0.28200
C4014       C  0.68978102  0.85485573  0.26023297     0.44700
C4015       C  0.69675801  0.88068269  0.24875726     0.05900
O4016       O  0.69338248  0.86790603  0.23126255    -0.56700
H4017       H  0.68811348  0.84913728  0.23475057     0.18800
O4018       O  0.68901300  0.85067051  0.26982888    -0.63400
H4019       H  0.69411318  0.86960604  0.26620970     0.17300
C4020       C  0.69037836  0.88829541  0.25295050     0.29500
C4021       C  0.69209044  0.89861498  0.25063203    -0.24300
C4022       C  0.70008062  0.90151944  0.24409037    -0.23600
C4023       C  0.70669722  0.89397162  0.24020298     0.41000
C4024       C  0.70509799  0.88364968  0.24266423    -0.26100
O4025       O  0.68206958  0.88569306  0.25878682    -0.58000
H4026       H  0.68683831  0.90434384  0.25353314     0.16600
O4027       O  0.71425199  0.89650439  0.23339710    -0.59400
H4028       H  0.71005734  0.87788362  0.23935719     0.15100
H4029       H  0.68202864  0.85241981  0.27219121     0.46900
H4030       H  0.67647368  0.88437497  0.25380629     0.42300
H4031       H  0.71096153  0.89614651  0.22654031     0.45700
H4032       H  0.68706358  0.87192536  0.23005438     0.37200
C4033       C  0.71512425  0.95008844  0.22057528    -0.27000
C4034       C  0.71822573  0.95639424  0.22869433     0.02600
C4035       C  0.71831293  0.95243159  0.23872993     0.30700
C4036       C  0.71455835  0.94251135  0.24058479    -0.18800
C4037       C  0.71075106  0.93651944  0.23248792    -0.28200
C4038       C  0.71135523  0.94026337  0.22240789     0.44700
C4039       C  0.71979073  0.96741928  0.22656671     0.05900
O4040       O  0.72123602  0.95846827  0.24681999    -0.56700
H4041       H  0.71408646  0.93973117  0.24838424     0.18800
O4042       O  0.70812901  0.93438325  0.21430134    -0.63400
H4043       H  0.71513666  0.95300933  0.21280722     0.17300
C4044       C  0.72941698  0.97217191  0.22742209     0.29500
C4045       C  0.73061623  0.98242024  0.22434218    -0.24300
C4046       C  0.72230667  0.98794076  0.22027440    -0.23600
C4047       C  0.71266797  0.98318421  0.21962395     0.41000
C4048       C  0.71147620  0.97304707  0.22276291    -0.26100
O4049       O  0.73772862  0.96678129  0.23089976    -0.58000
H4050       H  0.73809987  0.98594422  0.22481291     0.16600
O4051       O  0.70435037  0.98836224  0.21583556    -0.59400
H4052       H  0.70402769  0.96947149  0.22205639     0.15100
H4053       H  0.70146531  0.93732278  0.21218913     0.46900
H4054       H  0.74096248  0.96389910  0.22466549     0.42300
H4055       H  0.70144572  0.99206818  0.22179045     0.45700
H4056       H  0.72834410  0.95633877  0.24842335     0.37200
C4057       C  0.74769986  0.91893876  0.27070307    -0.27000
C4058       C  0.74731200  0.91564990  0.26044721     0.02600
C4059       C  0.75656376  0.91274473  0.25563939     0.30700
C4060       C  0.76589259  0.91364329  0.26088926    -0.18800
C4061       C  0.76619185  0.91704551  0.27107173    -0.28200
C4062       C  0.75694071  0.91928324  0.27607868     0.44700
C4063       C  0.73729358  0.91560700  0.25486817     0.05900
O4064       O  0.75661898  0.90906320  0.24580212    -0.56700
H4065       H  0.77293682  0.91181916  0.25694427     0.18800
O4066       O  0.75683326  0.92182634  0.28626166    -0.63400
H4067       H  0.74082672  0.92139157  0.27460321     0.17300
C4068       C  0.72817189  0.91235807  0.25968330     0.29500
C4069       C  0.71875065  0.91340895  0.25467488    -0.24300
C4070       C  0.71817830  0.91720856  0.24464140    -0.23600
C4071       C  0.72733469  0.91972436  0.23954756     0.41000
C4072       C  0.73669389  0.91925877  0.24474985    -0.26100
O4073       O  0.72831899  0.90819321  0.26932432    -0.58000
H4074       H  0.71183290  0.91133720  0.25870733     0.16600
O4075       O  0.72726873  0.92265216  0.22946876    -0.59400
H4076       H  0.74348037  0.92192015  0.24084567     0.15100
H4077       H  0.75672742  0.91520261  0.28995813     0.46900
H4078       H  0.73065972  0.90103935  0.26838017     0.42300
H4079       H  0.72587758  0.91630827  0.22552920     0.45700
H4080       H  0.75613631  0.90151996  0.24649123     0.37200
C4081       C  0.75593880  0.15411442  0.30941530    -0.27000
C4082       C  0.74734732  0.14985555  0.30454879     0.02600
C4083       C  0.73876471  0.15609399  0.30266690     0.30700
C4084       C  0.73883958  0.16638644  0.30563998    -0.18800
C4085       C  0.74746653  0.17072429  0.31041049    -0.28200
C4086       C  0.75604825  0.16444343  0.31235393     0.44700
C4087       C  0.74711511  0.13875047  0.30213087     0.05900
O4088       O  0.73028931  0.15222494  0.29781393    -0.56700
H4089       H  0.73220632  0.17105863  0.30391308     0.18800
O4090       O  0.76458312  0.16828837  0.31711712    -0.63400
H4091       H  0.76252839  0.14936385  0.31109873     0.17300
C4092       C  0.75476038  0.13405605  0.29613609     0.29500
C4093       C  0.75482163  0.12337558  0.29484598    -0.24300
C4094       C  0.74741286  0.11727894  0.29962498    -0.23600
C4095       C  0.73957612  0.12202292  0.30530159     0.41000
C4096       C  0.73939778  0.13267173  0.30640323    -0.26100
O4097       O  0.76241929  0.13979432  0.29186135    -0.58000
H4098       H  0.76102534  0.11980722  0.29066693     0.16600
O4099       O  0.73221028  0.11624724  0.31004265    -0.59400
H4100       H  0.73348962  0.13614583  0.31106484     0.15100
H4101       H  0.76324524  0.16752692  0.32455414     0.46900
H4102       H  0.76004520  0.14133423  0.28482157     0.42300
H4103       H  0.73393849  0.11644576  0.31744664     0.45700
H4104       H  0.73188002  0.15258500  0.29039722     0.37200
C4105       C  0.73475086  0.30942269  0.14946726    -0.27000
C4106       C  0.74387859  0.31019061  0.14390967     0.02600
C4107       C  0.75262540  0.31423040  0.14877647     0.30700
C4108       C  0.75224630  0.31699805  0.15915914    -0.18800
C4109       C  0.74321503  0.31582605  0.16486394    -0.28200
C4110       C  0.73436283  0.31213925  0.15983279     0.44700
C4111       C  0.74398881  0.30722835  0.13291340     0.05900
O4112       O  0.76144061  0.31587367  0.14333466    -0.56700
H4113       H  0.75910924  0.31993300  0.16278239     0.18800
O4114       O  0.72533393  0.31087072  0.16500207    -0.63400
H4115       H  0.72791446  0.30648547  0.14579246     0.17300
C4116       C  0.75099446  0.29998685  0.12902037     0.29500
C4117       C  0.75147292  0.29811330  0.11841131    -0.24300
C4118       C  0.74501301  0.30339626  0.11162436    -0.23600
C4119       C  0.73743748  0.30993219  0.11566292     0.41000
C4120       C  0.73700462  0.31184347  0.12618941    -0.26100
O4121       O  0.75731599  0.29468548  0.13554560    -0.58000
H4122       H  0.75732201  0.29303489  0.11546563     0.16600
O4123       O  0.73074542  0.31492804  0.10928817    -0.59400
H4124       H  0.73142758  0.31726615  0.12906822     0.15100
H4125       H  0.72541512  0.30366717  0.16740659     0.46900
H4126       H  0.76436108  0.29688432  0.13383003     0.42300
H4127       H  0.72460420  0.31047862  0.10899575     0.45700
H4128       H  0.76662667  0.31123205  0.14638504     0.37200
C4129       C  0.73620532  0.36279022  0.20727325    -0.27000
C4130       C  0.74547227  0.36820505  0.20689516     0.02600
C4131       C  0.75429636  0.36304394  0.20343754     0.30700
C4132       C  0.75372774  0.35275034  0.20034286    -0.18800
C4133       C  0.74440652  0.34735205  0.20055218    -0.28200
C4134       C  0.73561453  0.35250727  0.20419089     0.44700
C4135       C  0.74570884  0.37937191  0.20945295     0.05900
O4136       O  0.76350937  0.36802773  0.20289916    -0.56700
H4137       H  0.76064369  0.34899845  0.19774554     0.18800
O4138       O  0.72638225  0.34758227  0.20487878    -0.63400
H4139       H  0.72935619  0.36655041  0.21002832     0.17300
C4140       C  0.73908908  0.38625349  0.20441348     0.29500
C4141       C  0.74019916  0.39682823  0.20584080    -0.24300
C4142       C  0.74775638  0.40081579  0.21237380    -0.23600
C4143       C  0.75396243  0.39396745  0.21793564     0.41000
C4144       C  0.75291363  0.38332603  0.21646179    -0.26100
O4145       O  0.73210819  0.38277081  0.19736462    -0.58000
H4146       H  0.73546150  0.40198987  0.20138482     0.16600
O4147       O  0.76146664  0.39758379  0.22433746    -0.59400
H4148       H  0.75797597  0.37816367  0.22053409     0.15100
H4149       H  0.72603966  0.34502415  0.21202570     0.46900
H4150       H  0.72538648  0.38322764  0.20082677     0.42300
H4151       H  0.76753312  0.39858444  0.21991642     0.45700
H4152       H  0.76363772  0.37120435  0.19600877     0.37200
C4153       C  0.73558870  0.24798369  0.19901187    -0.27000
C4154       C  0.74269866  0.25287794  0.19265316     0.02600
C4155       C  0.74982211  0.24690808  0.18718651     0.30700
C4156       C  0.74998944  0.23625036  0.18841652    -0.18800
C4157       C  0.74296667  0.23136720  0.19490924    -0.28200
C4158       C  0.73565420  0.23732983  0.20013598     0.44700
C4159       C  0.74301375  0.26422841  0.19234594     0.05900
O4160       O  0.75663670  0.25141694  0.18061951    -0.56700
H4161       H  0.75551873  0.23177535  0.18415685     0.18800
O4162       O  0.72867307  0.23285536  0.20654805    -0.63400
H4163       H  0.73012269  0.25247202  0.20333708     0.17300
C4164       C  0.73424904  0.27003595  0.18995370     0.29500
C4165       C  0.73454786  0.28074974  0.19058960    -0.24300
C4166       C  0.74354784  0.28587358  0.19356587    -0.23600
C4167       C  0.75234043  0.27999930  0.19586723     0.41000
C4168       C  0.75203054  0.26930803  0.19516831    -0.26100
O4169       O  0.72533276  0.26531024  0.18705078    -0.58000
H4170       H  0.72770516  0.28505209  0.18872858     0.16600
O4171       O  0.76123032  0.28457739  0.19906187    -0.59400
H4172       H  0.75879096  0.26493785  0.19717992     0.15100
H4173       H  0.73215812  0.23240899  0.21328903     0.46900
H4174       H  0.72619051  0.26374693  0.17966744     0.42300
H4175       H  0.76084768  0.28462742  0.20665522     0.45700
H4176       H  0.75278983  0.25241366  0.17413162     0.37200
C4177       C  0.73856910  0.19702578  0.24427187    -0.27000
C4178       C  0.74753372  0.20055670  0.24903423     0.02600
C4179       C  0.75574215  0.20381402  0.24286617     0.30700
C4180       C  0.75481550  0.20368297  0.23215390    -0.18800
C4181       C  0.74571034  0.20043809  0.22738259    -0.28200
C4182       C  0.73760064  0.19694941  0.23359483     0.44700
C4183       C  0.74803205  0.20105667  0.26041888     0.05900
O4184       O  0.76462038  0.20735794  0.24721575    -0.56700
H4185       H  0.76117686  0.20635017  0.22757804     0.18800
O4186       O  0.72867183  0.19341380  0.22934385    -0.63400
H4187       H  0.73224756  0.19430513  0.24887612     0.17300
C4188       C  0.74025793  0.20601747  0.26601287     0.29500
C4189       C  0.74045952  0.20599231  0.27672170    -0.24300
C4190       C  0.74846737  0.20125566  0.28210757    -0.23600
C4191       C  0.75638134  0.19646351  0.27653080     0.41000
C4192       C  0.75611211  0.19638116  0.26578020    -0.26100
O4193       O  0.73241844  0.21097339  0.26107627    -0.58000
H4194       H  0.73436646  0.20981955  0.28083501     0.16600
O4195       O  0.76427983  0.19162221  0.28148837    -0.59400
H4196       H  0.76211701  0.19245993  0.26162791     0.15100
H4197       H  0.72957655  0.18589041  0.22877307     0.46900
H4198       H  0.73527051  0.21771094  0.25905748     0.42300
H4199       H  0.76186994  0.18450942  0.28261633     0.45700
H4200       H  0.76325263  0.21463741  0.24891067     0.37200
C4201       C  0.73241093  0.21377457  0.15245838    -0.27000
C4202       C  0.73928351  0.20990007  0.14519254     0.02600
C4203       C  0.74707702  0.20316200  0.14847345     0.30700
C4204       C  0.74779556  0.20032472  0.15884417    -0.18800
C4205       C  0.74064554  0.20392166  0.16602669    -0.28200
C4206       C  0.73300967  0.21083686  0.16273498     0.44700
C4207       C  0.73761548  0.21223530  0.13414562     0.05900
O4208       O  0.75386205  0.19910785  0.14157617    -0.56700
H4209       H  0.75383338  0.19516185  0.16123709     0.18800
O4210       O  0.72616912  0.21495878  0.16954294    -0.63400
H4211       H  0.72645722  0.21906173  0.15011883     0.17300
C4212       C  0.72809256  0.21007005  0.12956205     0.29500
C4213       C  0.72670808  0.21146989  0.11905185    -0.24300
C4214       C  0.73470098  0.21499451  0.11284305    -0.23600
C4215       C  0.74410032  0.21762676  0.11742743     0.41000
C4216       C  0.74550905  0.21625358  0.12803303    -0.26100
O4217       O  0.72021417  0.20607690  0.13521051    -0.58000
H4218       H  0.71946622  0.20930205  0.11562547     0.16600
O4219       O  0.75210026  0.22100509  0.11156398    -0.59400
H4220       H  0.75284995  0.21806747  0.13144053     0.15100
H4221       H  0.72977193  0.22085849  0.17269759     0.46900
H4222       H  0.72111409  0.19854222  0.13484914     0.42300
H4223       H  0.75586558  0.21474149  0.10953494     0.45700
H4224       H  0.75057224  0.19275454  0.13902142     0.37200
C4225       C  0.73542246  0.13397940  0.21552541    -0.27000
C4226       C  0.74198972  0.13776460  0.20787762     0.02600
C4227       C  0.74784162  0.13076520  0.20213147     0.30700
C4228       C  0.74669187  0.12024782  0.20367827    -0.18800
C4229       C  0.73965908  0.11644159  0.21082493    -0.28200
C4230       C  0.73417857  0.12338632  0.21697204     0.44700
C4231       C  0.74222975  0.14889348  0.20538537     0.05900
O4232       O  0.75425795  0.13408827  0.19453269    -0.56700
H4233       H  0.75088160  0.11499755  0.19880689     0.18800
O4234       O  0.72713604  0.11994188  0.22392734    -0.63400
H4235       H  0.73094859  0.13924543  0.22010872     0.17300
C4236       C  0.73316865  0.15429151  0.20310684     0.29500
C4237       C  0.73359423  0.16463552  0.20028928    -0.24300
C4238       C  0.74299956  0.16983088  0.19955682    -0.23600
C4239       C  0.75208099  0.16435139  0.20172467     0.41000
C4240       C  0.75162633  0.15402895  0.20462820    -0.26100
O4241       O  0.72383844  0.14950978  0.20349548    -0.58000
H4242       H  0.72648570  0.16860470  0.19871492     0.16600
O4243       O  0.76147045  0.16897883  0.20110920    -0.59400
H4244       H  0.75867999  0.15001803  0.20634728     0.15100
H4245       H  0.72067258  0.11920606  0.22001942     0.46900
H4246       H  0.72309471  0.14599591  0.19679873     0.42300
H4247       H  0.76294919  0.17146706  0.20813570     0.45700
H4248       H  0.74992045  0.13456392  0.18830704     0.37200
C4249       C  0.73840762  0.26959264  0.30734974    -0.27000
C4250       C  0.74686773  0.26500245  0.31212514     0.02600
C4251       C  0.75461518  0.27123203  0.31628695     0.30700
C4252       C  0.75369685  0.28188182  0.31585264    -0.18800
C4253       C  0.74506465  0.28649208  0.31136993    -0.28200
C4254       C  0.73746048  0.28023559  0.30693794     0.44700
C4255       C  0.74741995  0.25371646  0.31278047     0.05900
O4256       O  0.76301764  0.26700065  0.32096401    -0.56700
H4257       H  0.75966812  0.28653688  0.31924843     0.18800
O4258       O  0.72910247  0.28440893  0.30213325    -0.63400
H4259       H  0.73250954  0.26488879  0.30388971     0.17300
C4260       C  0.73914727  0.24805670  0.31669193     0.29500
C4261       C  0.73951155  0.23737875  0.31670940    -0.24300
C4262       C  0.74815399  0.23215405  0.31305133    -0.23600
C4263       C  0.75654510  0.23782928  0.30936199     0.41000
C4264       C  0.75611874  0.24852983  0.30922985    -0.26100
O4265       O  0.73066510  0.25290065  0.32052894    -0.58000
H4266       H  0.73302477  0.23317854  0.31968985     0.16600
O4267       O  0.76509552  0.23302423  0.30564047    -0.59400
H4268       H  0.76250871  0.25278128  0.30612047     0.15100
H4269       H  0.73108157  0.28499790  0.29482383     0.46900
H4270       H  0.73217262  0.25400794  0.32789404     0.42300
H4271       H  0.76356937  0.23163515  0.29832470     0.45700
H4272       H  0.76097801  0.26595426  0.32819369     0.37200
C4273       C  0.75323014  0.31114488  0.26499618    -0.27000
C4274       C  0.74552756  0.31603195  0.25927916     0.02600
C4275       C  0.73786257  0.32157585  0.26442171     0.30700
C4276       C  0.73774467  0.32187358  0.27509081    -0.18800
C4277       C  0.74536460  0.31694027  0.28083692    -0.28200
C4278       C  0.75321854  0.31161018  0.27572009     0.44700
C4279       C  0.74544794  0.31536975  0.24796686     0.05900
O4280       O  0.73046876  0.32679667  0.25908129    -0.56700
H4281       H  0.73170109  0.32608008  0.27890105     0.18800
O4282       O  0.76073710  0.30661380  0.28109886    -0.63400
H4283       H  0.75915969  0.30682172  0.26114102     0.17300
C4284       C  0.75402031  0.31831857  0.24219493     0.29500
C4285       C  0.75356466  0.31814363  0.23150759    -0.24300
C4286       C  0.74457796  0.31516423  0.22638191    -0.23600
C4287       C  0.73602624  0.31209007  0.23218468     0.41000
C4288       C  0.73653399  0.31217607  0.24287563    -0.26100
O4289       O  0.76279815  0.32163652  0.24691493    -0.58000
H4290       H  0.76020866  0.32060678  0.22722735     0.16600
O4291       O  0.72711584  0.30904374  0.22752918    -0.59400
H4292       H  0.72990357  0.30979060  0.24722446     0.15100
H4293       H  0.75781192  0.29982144  0.28279343     0.46900
H4294       H  0.76163106  0.32899467  0.24836429     0.42300
H4295       H  0.72777733  0.30151880  0.22668564     0.45700
H4296       H  0.73375347  0.33330559  0.25696795     0.37200
C4297       C  0.73146139  0.38395553  0.29341791    -0.27000
C4298       C  0.73783294  0.38010506  0.30123201     0.02600
C4299       C  0.74280678  0.38705303  0.30780537     0.30700
C4300       C  0.74105221  0.39756748  0.30683365    -0.18800
C4301       C  0.73434333  0.40142472  0.29936219    -0.28200
C4302       C  0.72973007  0.39455961  0.29242349     0.44700
C4303       C  0.73871378  0.36888817  0.30309144     0.05900
O4304       O  0.74897268  0.38360760  0.31558882    -0.56700
H4305       H  0.74460845  0.40273988  0.31227437     0.18800
O4306       O  0.72290308  0.39803263  0.28523261    -0.63400
H4307       H  0.72758370  0.37870927  0.28828316     0.17300
C4308       C  0.73005075  0.36302670  0.30561310     0.29500
C4309       C  0.73110344  0.35266404  0.30823868    -0.24300
C4310       C  0.74075016  0.34787547  0.30837375    -0.23600
C4311       C  0.74942474  0.35375586  0.30566620     0.41000
C4312       C  0.74835615  0.36415502  0.30314759    -0.26100
O4313       O  0.72056318  0.36749196  0.30602300    -0.58000
H4314       H  0.72429867  0.34837430  0.31020300     0.16600
O4315       O  0.75899088  0.34945282  0.30538681    -0.59400
H4316       H  0.75510337  0.36856030  0.30122495     0.15100
H4317       H  0.72668330  0.39789832  0.27865220     0.46900
H4318       H  0.71718180  0.36560708  0.29948806     0.42300
H4319       H  0.75995838  0.34724469  0.29817191     0.45700
H4320       H  0.74431058  0.38243538  0.32145966     0.37200
C4321       C  0.74199681  0.21069555  0.38252929    -0.27000
C4322       C  0.75028774  0.21208823  0.37583770     0.02600
C4323       C  0.75957167  0.21593555  0.37983022     0.30700
C4324       C  0.76073940  0.21733683  0.39043818    -0.18800
C4325       C  0.75265246  0.21525951  0.39714181    -0.28200
C4326       C  0.74312771  0.21230124  0.39309229     0.44700
C4327       C  0.74929595  0.20906805  0.36484563     0.05900
O4328       O  0.76749283  0.21839053  0.37339405    -0.56700
H4329       H  0.76813382  0.21956121  0.39346892     0.18800
O4330       O  0.73511057  0.21015907  0.39949156    -0.63400
H4331       H  0.73476309  0.20786409  0.37962493     0.17300
C4332       C  0.75647197  0.20245311  0.36019871     0.29500
C4333       C  0.75566065  0.20004499  0.34976992    -0.24300
C4334       C  0.74755490  0.20383679  0.34380621    -0.23600
C4335       C  0.74008604  0.21004383  0.34855674     0.41000
C4336       C  0.74098570  0.21258187  0.35897675    -0.26100
O4337       O  0.76430537  0.19823078  0.36578242    -0.58000
H4338       H  0.76142788  0.19518972  0.34631861     0.16600
O4339       O  0.73210090  0.21402892  0.34301130    -0.59400
H4340       H  0.73530973  0.21755100  0.36241592     0.15100
H4341       H  0.73216898  0.21692265  0.40130819     0.46900
H4342       H  0.76124204  0.19229230  0.36936357     0.42300
H4343       H  0.73454729  0.22078866  0.34055477     0.45700
H4344       H  0.77322260  0.21380448  0.37530359     0.37200
C4345       C  0.74577799  0.29868940  0.37899159    -0.27000
C4346       C  0.73754642  0.30320489  0.37364623     0.02600
C4347       C  0.72847858  0.30536214  0.37910547     0.30700
C4348       C  0.72807241  0.30381918  0.38969946    -0.18800
C4349       C  0.73660738  0.30022936  0.39514953    -0.28200
C4350       C  0.74538482  0.29727621  0.38966991     0.44700
C4351       C  0.73862467  0.30629073  0.36263470     0.05900
O4352       O  0.72017428  0.30966594  0.37432098    -0.56700
H4353       H  0.72127515  0.30618192  0.39381055     0.18800
O4354       O  0.75386972  0.29370658  0.39472686    -0.63400
H4355       H  0.75271549  0.29666813  0.37495111     0.17300
C4356       C  0.74719682  0.31188248  0.35914605     0.29500
C4357       C  0.74775444  0.31517957  0.34890872    -0.24300
C4358       C  0.73977442  0.31318522  0.34194953    -0.23600
C4359       C  0.73123366  0.30753511  0.34544902     0.41000
C4360       C  0.73075799  0.30413357  0.35561694    -0.26100
O4361       O  0.75505387  0.31428997  0.36569386    -0.58000
H4362       H  0.75446277  0.31934945  0.34642464     0.16600
O4363       O  0.72336516  0.30503193  0.33894751    -0.59400
H4364       H  0.72419664  0.29967717  0.35799237     0.15100
H4365       H  0.75778497  0.29990627  0.39669675     0.46900
H4366       H  0.75292986  0.32073567  0.36908904     0.42300
H4367       H  0.72523359  0.29824733  0.33606323     0.45700
H4368       H  0.72143101  0.31715413  0.37447227     0.37200
C4369       C  0.75203169  0.27008346  0.41722564    -0.27000
C4370       C  0.74446086  0.26341280  0.41353009     0.02600
C4371       C  0.73526068  0.26752682  0.40966683     0.30700
C4372       C  0.73381924  0.27817961  0.40940819    -0.18800
C4373       C  0.74135418  0.28481392  0.41323850    -0.28200
C4374       C  0.75050863  0.28069099  0.41714446     0.44700
C4375       C  0.74640910  0.25221296  0.41363703     0.05900
O4376       O  0.72760378  0.26120941  0.40624499    -0.56700
H4377       H  0.72667314  0.28128353  0.40656799     0.18800
O4378       O  0.75796034  0.28699813  0.42100512    -0.63400
H4379       H  0.75911206  0.26703231  0.42029249     0.17300
C4380       C  0.75459807  0.24805602  0.40802113     0.29500
C4381       C  0.75684102  0.23758820  0.40868353    -0.24300
C4382       C  0.75108942  0.23112312  0.41500188    -0.23600
C4383       C  0.74274004  0.23522043  0.42045387     0.41000
C4384       C  0.74044227  0.24570389  0.41974844    -0.26100
O4385       O  0.76035736  0.25417428  0.40174474    -0.58000
H4386       H  0.76326836  0.23454877  0.40445521     0.16600
O4387       O  0.73681812  0.22905045  0.42650930    -0.59400
H4388       H  0.73412238  0.24879806  0.42412340     0.15100
H4389       H  0.76259736  0.28837264  0.41516307     0.46900
H4390       H  0.76676539  0.25550416  0.40559148     0.42300
H4391       H  0.73167435  0.22600088  0.42180705     0.45700
H4392       H  0.72943715  0.25951429  0.39908968     0.37200
C4393       C  0.77563199  0.22267374  0.46939723    -0.27000
C4394       C  0.76527737  0.22396980  0.46676069     0.02600
C4395       C  0.75802312  0.22496878  0.47467370     0.30700
C4396       C  0.76103628  0.22408604  0.48492213    -0.18800
C4397       C  0.77132054  0.22254435  0.48755860    -0.28200
C4398       C  0.77867976  0.22206612  0.47969050     0.44700
C4399       C  0.76193598  0.22307867  0.45587020     0.05900
O4400       O  0.74788058  0.22649805  0.47245828    -0.56700
H4401       H  0.75521775  0.22422450  0.49077607     0.18800
O4402       O  0.78885130  0.22079063  0.48195864    -0.63400
H4403       H  0.78133737  0.22175674  0.46346942     0.17300
C4404       C  0.76653687  0.22876282  0.44792254     0.29500
C4405       C  0.76383960  0.22685666  0.43764384    -0.24300
C4406       C  0.75665931  0.21924288  0.43518966    -0.23600
C4407       C  0.75163843  0.21405215  0.44316595     0.41000
C4408       C  0.75433950  0.21590453  0.45335117    -0.26100
O4409       O  0.77366690  0.23615043  0.45013546    -0.58000
H4410       H  0.76779791  0.23088848  0.43158662     0.16600
O4411       O  0.74442127  0.20672917  0.44103952    -0.59400
H4412       H  0.75075242  0.21138454  0.45929608     0.15100
H4413       H  0.79131311  0.22767975  0.48401848     0.46900
H4414       H  0.78034099  0.23318194  0.44807562     0.42300
H4415       H  0.73788121  0.21054479  0.44039493     0.45700
H4416       H  0.74721591  0.23396603  0.47124576     0.37200
C4417       C  0.74358762  0.29261024  0.47312049    -0.27000
C4418       C  0.73573500  0.29330932  0.46577822     0.02600
C4419       C  0.72560213  0.29494167  0.46914418     0.30700
C4420       C  0.72355274  0.29621341  0.47957555    -0.18800
C4421       C  0.73146268  0.29593996  0.48683232    -0.28200
C4422       C  0.74154258  0.29408409  0.48354669     0.44700
C4423       C  0.73822720  0.29360550  0.45465239     0.05900
O4424       O  0.71767830  0.29574778  0.46228322    -0.56700
H4425       H  0.71575743  0.29762748  0.48199934     0.18800
O4426       O  0.74951885  0.29418050  0.49038102    -0.63400
H4427       H  0.75140720  0.29131563  0.47072524     0.17300
C4428       C  0.74555835  0.30057794  0.45088698     0.29500
C4429       C  0.74634931  0.30233853  0.44035279    -0.24300
C4430       C  0.73990840  0.29727759  0.43339282    -0.23600
C4431       C  0.73303165  0.28985327  0.43707241     0.41000
C4432       C  0.73236263  0.28794039  0.44760752    -0.26100
O4433       O  0.75153079  0.30622855  0.45744222    -0.58000
H4434       H  0.75162441  0.30812751  0.43764193     0.16600
O4435       O  0.72633973  0.28502940  0.43057245    -0.59400
H4436       H  0.72678238  0.28245516  0.45032367     0.15100
H4437       H  0.75156048  0.30147254  0.49095594     0.46900
H4438       H  0.74722308  0.31211957  0.45952957     0.42300
H4439       H  0.72047758  0.28980285  0.42983251     0.45700
H4440       H  0.71769237  0.30299930  0.46004452     0.37200
C4441       C  0.74014458  0.26554585  0.49914969    -0.27000
C4442       C  0.74884281  0.26452721  0.50539927     0.02600
C4443       C  0.75173405  0.27270835  0.51182185     0.30700
C4444       C  0.74602815  0.28175120  0.51183925    -0.18800
C4445       C  0.73730827  0.28273533  0.50564986    -0.28200
C4446       C  0.73429461  0.27450203  0.49937255     0.44700
C4447       C  0.75466493  0.25480760  0.50539690     0.05900
O4448       O  0.76003606  0.27189240  0.51821206    -0.56700
H4449       H  0.74838931  0.28804633  0.51670670     0.18800
O4450       O  0.72557847  0.27508145  0.49354723    -0.63400
H4451       H  0.73783737  0.25934291  0.49413749     0.17300
C4452       C  0.74967974  0.24540971  0.50714569     0.29500
C4453       C  0.75531175  0.23632062  0.50728604    -0.24300
C4454       C  0.76589037  0.23645955  0.50574893    -0.23600
C4455       C  0.77092979  0.24580081  0.50417984     0.41000
C4456       C  0.76530347  0.25491200  0.50386823    -0.26100
O4457       O  0.73941625  0.24511538  0.50928872    -0.58000
H4458       H  0.75147643  0.22913032  0.50880377     0.16600
O4459       O  0.78134110  0.24605313  0.50301367    -0.59400
H4460       H  0.76925225  0.26207434  0.50251327     0.15100
H4461       H  0.71994622  0.27312182  0.49821957     0.46900
H4462       H  0.73613048  0.24226425  0.50306301     0.42300
H4463       H  0.78409661  0.24738436  0.50998666     0.45700
H4464       H  0.75742987  0.26846874  0.52445530     0.37200
C4465       C  0.80391309  0.26347231  0.64699413    -0.27000
C4466       C  0.79737586  0.25583209  0.64312160     0.02600
C4467       C  0.79363793  0.24829509  0.64984962     0.30700
C4468       C  0.79642780  0.24843600  0.66018483    -0.18800
C4469       C  0.80280181  0.25615165  0.66413377    -0.28200
C4470       C  0.80660484  0.26369472  0.65741237     0.44700
C4471       C  0.79493684  0.25538737  0.63199290     0.05900
O4472       O  0.78709053  0.24082577  0.64642936    -0.56700
H4473       H  0.79325816  0.24265895  0.66521095     0.18800
O4474       O  0.81295365  0.27129694  0.66091061    -0.63400
H4475       H  0.80703808  0.26921358  0.64190101     0.17300
C4476       C  0.79119652  0.26398770  0.62658718     0.29500
C4477       C  0.78984561  0.26348803  0.61591422    -0.24300
C4478       C  0.79210533  0.25444388  0.61057585    -0.23600
C4479       C  0.79520963  0.24570557  0.61605707     0.41000
C4480       C  0.79663916  0.24622301  0.62664303    -0.26100
O4481       O  0.78910763  0.27297632  0.63160876    -0.58000
H4482       H  0.78751770  0.27028247  0.61175686     0.16600
O4483       O  0.79708069  0.23665341  0.61103880    -0.59400
H4484       H  0.79947460  0.23951556  0.63062328     0.15100
H4485       H  0.81986440  0.26816368  0.66113265     0.46900
H4486       H  0.78232293  0.27192540  0.63481263     0.42300
H4487       H  0.80462426  0.23608854  0.61064067     0.45700
H4488       H  0.78014200  0.24372519  0.64732846     0.37200
C4489       C  0.78583737  0.25298065  0.55451207    -0.27000
C4490       C  0.77911459  0.24464591  0.55369714     0.02600
C4491       C  0.77491339  0.24040003  0.56266886     0.30700
C4492       C  0.77805226  0.24403344  0.57229041    -0.18800
C4493       C  0.78543773  0.25178963  0.57306371    -0.28200
C4494       C  0.78910444  0.25646988  0.56409914     0.44700
C4495       C  0.77805345  0.23942661  0.54367272     0.05900
O4496       O  0.76865017  0.23199235  0.56213488    -0.56700
H4497       H  0.77530859  0.24024601  0.57913213     0.18800
O4498       O  0.79612428  0.26426270  0.56465992    -0.63400
H4499       H  0.78907100  0.25636472  0.54767138     0.17300
C4500       C  0.76849886  0.23770939  0.53900175     0.29500
C4501       C  0.76797550  0.23234335  0.52968457    -0.24300
C4502       C  0.77691188  0.22883968  0.52483140    -0.23600
C4503       C  0.78644897  0.23075373  0.52947016     0.41000
C4504       C  0.78695001  0.23590606  0.53882477    -0.26100
O4505       O  0.75973676  0.24162390  0.54325568    -0.58000
H4506       H  0.76055979  0.23085182  0.52633377     0.16600
O4507       O  0.79536984  0.22776336  0.52484374    -0.59400
H4508       H  0.79436504  0.23716856  0.54233169     0.15100
H4509       H  0.80273540  0.26115919  0.56261711     0.46900
H4510       H  0.75563461  0.23560645  0.54535703     0.42300
H4511       H  0.79751930  0.23373208  0.52067243     0.45700
H4512       H  0.76175604  0.23452454  0.56405129     0.37200
C4513       C  0.69390932  0.25717777  0.62391246    -0.27000
C4514       C  0.69954417  0.26327704  0.63076546     0.02600
C4515       C  0.70750027  0.26944624  0.62685092     0.30700
C4516       C  0.70910302  0.27006693  0.61621165    -0.18800
C4517       C  0.70291013  0.26454828  0.60935677    -0.28200
C4518       C  0.69559186  0.25771175  0.61334452     0.44700
C4519       C  0.69676630  0.26325369  0.64186902     0.05900
O4520       O  0.71380797  0.27476747  0.63337805    -0.56700
H4521       H  0.71481357  0.27532234  0.61333924     0.18800
O4522       O  0.68972050  0.25180302  0.60693491    -0.63400
H4523       H  0.68789119  0.25223595  0.62673456     0.17300
C4524       C  0.69473512  0.27242429  0.64723481     0.29500
C4525       C  0.69184513  0.27214125  0.65757730    -0.24300
C4526       C  0.69070493  0.26278536  0.66280533    -0.23600
C4527       C  0.69241643  0.25359540  0.65730143     0.41000
C4528       C  0.69544561  0.25390392  0.64700536    -0.26100
O4529       O  0.69541871  0.28173862  0.64243764    -0.58000
H4530       H  0.69056934  0.27932461  0.66153224     0.16600
O4531       O  0.69150365  0.24423008  0.66195414    -0.59400
H4532       H  0.69685579  0.24675792  0.64302262     0.15100
H4533       H  0.69419155  0.24598236  0.60493540     0.46900
H4534       H  0.68893308  0.28249506  0.63857541     0.42300
H4535       H  0.68434846  0.24206878  0.66064757     0.45700
H4536       H  0.71279378  0.28212109  0.63171408     0.37200
C4537       C  0.71567712  0.28928221  0.56095268    -0.27000
C4538       C  0.72191136  0.28245541  0.55547434     0.02600
C4539       C  0.72438717  0.27291331  0.55991498     0.30700
C4540       C  0.72008690  0.27010413  0.56938295    -0.18800
C4541       C  0.71331891  0.27671455  0.57447439    -0.28200
C4542       C  0.71144734  0.28650085  0.57036444     0.44700
C4543       C  0.72514971  0.28532052  0.54492986     0.05900
O4544       O  0.73110460  0.26640467  0.55512634    -0.56700
H4545       H  0.72169564  0.26259070  0.57251053     0.18800
O4546       O  0.70522285  0.29331502  0.57536626    -0.63400
H4547       H  0.71376387  0.29669096  0.55773599     0.17300
C4548       C  0.72251052  0.27920338  0.53640747     0.29500
C4549       C  0.72396777  0.28293263  0.52644748    -0.24300
C4550       C  0.72801551  0.29273605  0.52479243    -0.23600
C4551       C  0.73106802  0.29866753  0.53326310     0.41000
C4552       C  0.72967901  0.29493286  0.54322712    -0.26100
O4553       O  0.71762731  0.27000533  0.53772724    -0.58000
H4554       H  0.72141312  0.27835148  0.52000909     0.16600
O4555       O  0.73542223  0.30812098  0.53186313    -0.59400
H4556       H  0.73180920  0.29972062  0.54967089     0.15100
H4557       H  0.70974387  0.29683817  0.58036618     0.46900
H4558       H  0.72253291  0.26472587  0.53528346     0.42300
H4559       H  0.72992832  0.31312711  0.53336261     0.45700
H4560       H  0.72718923  0.26007424  0.55364208     0.37200
C4561       C  0.73583699  0.25557152  0.59592520    -0.27000
C4562       C  0.74278712  0.26377715  0.59632186     0.02600
C4563       C  0.73894865  0.27389678  0.59628254     0.30700
C4564       C  0.72844090  0.27566150  0.59523990    -0.18800
C4565       C  0.72159509  0.26745439  0.59456750    -0.28200
C4566       C  0.72530099  0.25737402  0.59516149     0.44700
C4567       C  0.75398029  0.26175531  0.59579101     0.05900
O4568       O  0.74543517  0.28211909  0.59700023    -0.56700
H4569       H  0.72560330  0.28344579  0.59479326     0.18800
O4570       O  0.71872717  0.24925619  0.59418737    -0.63400
H4571       H  0.73859732  0.24774929  0.59575224     0.17300
C4572       C  0.75884241  0.25451628  0.60219293     0.29500
C4573       C  0.76931612  0.25243746  0.60102363    -0.24300
C4574       C  0.77512745  0.25763910  0.59364187    -0.23600
C4575       C  0.77030511  0.26509655  0.58749968     0.41000
C4576       C  0.75983538  0.26693573  0.58845018    -0.26100
O4577       O  0.75343605  0.24941153  0.60958286    -0.58000
H4578       H  0.77286423  0.24664809  0.60578180     0.16600
O4579       O  0.77578028  0.27065533  0.58050250    -0.59400
H4580       H  0.75626169  0.27240930  0.58333585     0.15100
H4581       H  0.71689109  0.24735297  0.60130205     0.46900
H4582       H  0.75354695  0.25399516  0.61564152     0.42300
H4583       H  0.77787911  0.27696011  0.58417272     0.45700
H4584       H  0.74578695  0.28375080  0.60440838     0.37200
loop_ 
_geom_bond_atom_site_label_1 
_geom_bond_atom_site_label_2 
_geom_bond_distance 
_geom_bond_site_symmetry_2 
_ccdc_geom_bond_type 
N1            C5   1.357       .  A
N1            C2   1.359       .  A
N1         C4565   1.436       .  S
C2            C3   1.385       .  A
C2         C4517   1.488       .  S
C3            C4   1.375       .  A
C3            H6   1.082       .  S
C4            C5   1.381       .  A
C4            H7   1.082       .  S
C5         C4541   1.484       .  S
N8           C12   1.359       .  A
N8            C9   1.359       .  A
N8         C4574   1.445       .  S
C9           C10   1.382       .  A
C9         C4478   1.476       .  S
C10          C11   1.370       .  A
C10          H13   1.082       .  S
C11          C12   1.381       .  A
C11          H14   1.082       .  S
C12        C4493   1.479       .  S
N15          C19   1.355       .  A
N15          C16   1.355       .  A
N15        C4445   1.438       .  S
C16          C17   1.383       .  A
C16        C4421   1.481       .  S
C17          C18   1.379       .  A
C17          H20   1.082       .  S
C18          C19   1.383       .  A
C18          H21   1.082       .  S
C19        C4550   1.483       .  S
N22          C26   1.353       .  A
N22          C23   1.354       .  A
N22        C4454   1.432       .  S
C23          C24   1.384       .  A
C23        C4397   1.486       .  S
C24          C25   1.380       .  A
C24          H27   1.082       .  S
C25          C26   1.384       .  A
C25          H28   1.082       .  S
C26        C4502   1.485       .  S
N29          C33   1.359       .  A
N29          C30   1.360       .  A
N29        C4373   1.440       .  S
C30          C31   1.383       .  A
C30        C4349   1.484       .  S
C31          C32   1.372       .  A
C31          H34   1.082       .  S
C32          C33   1.381       .  A
C32          H35   1.082       .  S
C33        C4430   1.482       .  S
N36          C40   1.360       .  A
N36          C37   1.359       .  A
N36        C4382   1.442       .  S
C37          C38   1.379       .  A
C37        C4325   1.477       .  S
C38          C39   1.372       .  A
C38          H41   1.082       .  S
C39          C40   1.383       .  A
C39          H42   1.082       .  S
C40        C4406   1.482       .  S
O43         Ni51   1.905       .  S
O43          C53   1.279       .  A
O44         Ni51   1.915       .  S
O44          C54   1.281       .  A
O45         Ni51   1.920       .  S
O45          C55   1.283       .  A
O46         Ni51   1.914       .  S
O46          C56   1.281       .  A
O47         Ni52   1.908       .  S
O47          C56   1.280       .  A
O48         Ni52   1.923       .  S
O48          C55   1.282       .  A
O49         Ni52   1.933       .  S
O49          C54   1.285       .  A
O50         Ni52   1.924       .  S
O50          C53   1.282       .  A
Ni51        Ni52   2.385       .  S
C53        C4277   1.473       .  S
C54        C4358   1.495       .  S
C55        C4310   1.493       .  S
C56        C4253   1.475       .  S
O57         Ni65   1.921       .  S
O57          C67   1.282       .  A
O58         Ni65   1.924       .  S
O58          C68   1.283       .  A
O59         Ni65   1.924       .  S
O59          C69   1.282       .  A
O60         Ni65   1.925       .  S
O60          C70   1.283       .  A
O61         Ni66   1.918       .  S
O61          C70   1.282       .  A
O62         Ni66   1.919       .  S
O62          C69   1.283       .  A
O63         Ni66   1.916       .  S
O63          C68   1.281       .  A
O64         Ni66   1.912       .  S
O64          C67   1.280       .  A
Ni65        Ni66   2.385       .  S
C67        C4157   1.478       .  S
C68        C4238   1.491       .  S
C69        C4205   1.485       .  S
C70        C4181   1.489       .  S
O71         Ni79   1.911       .  S
O71          C81   1.281       .  A
O72         Ni79   1.918       .  S
O72          C82   1.282       .  A
O73         Ni79   1.922       .  S
O73          C83   1.283       .  A
O74         Ni79   1.918       .  S
O74          C84   1.282       .  A
O75         Ni80   1.921       .  S
O75          C84   1.282       .  A
O76         Ni80   1.924       .  S
O76          C83   1.283       .  A
O77         Ni80   1.916       .  S
O77          C82   1.281       .  A
O78         Ni80   1.912       .  S
O78          C81   1.280       .  A
Ni79        Ni80   2.384       .  S
C81        C4286   1.478       .  S
C82        C4109   1.487       .  S
C83        C4133   1.495       .  S
C84        C4166   1.487       .  S
O85         Ni93   1.919       .  S
O85          C95   1.281       .  A
O86         Ni93   1.921       .  S
O86          C96   1.282       .  A
O87         Ni93   1.915       .  S
O87          C97   1.281       .  A
O88         Ni93   1.916       .  S
O88          C98   1.281       .  A
O89         Ni94   1.906       .  S
O89          C98   1.280       .  A
O90         Ni94   1.916       .  S
O90          C97   1.282       .  A
O91         Ni94   1.925       .  S
O91          C96   1.283       .  A
O92         Ni94   1.921       .  S
O92          C95   1.283       .  A
Ni93        Ni94   2.387       .  S
C95        C4190   1.483       .  S
C96        C4334   1.486       .  S
C97        C4085   1.483       .  S
C98        C4262   1.475       .  S
N99         C103   1.361       .  A
N99         C100   1.361       .  A
N99        C4070   1.447       .  S
C100        C101   1.381       .  A
C100       C4022   1.479       .  S
C101        C102   1.371       .  A
C101        H104   1.082       .  S
C102        C103   1.382       .  A
C102        H105   1.082       .  S
C103       C4037   1.481       .  S
N106        C110   1.360       .  A
N106        C107   1.361       .  A
N106       C4061   1.442       .  S
C107        C108   1.383       .  A
C107       C3965   1.486       .  S
C108        C109   1.374       .  A
C108        H111   1.082       .  S
C109        C110   1.380       .  A
C109        H112   1.082       .  S
C110       C3989   1.484       .  S
N113        C117   1.358       .  A
N113        C114   1.358   1_545  A
N113       C3941   1.439       .  S
C114        C115   1.383   1_565  A
C114       C4046   1.484       .  S
C115        C116   1.376       .  A
C115        H118   1.082   1_545  S
C116        C117   1.383       .  A
C116        H119   1.082       .  S
C117       C3917   1.485       .  S
N120        C124   1.356   1_545  A
N120        C121   1.357       .  A
N120       C3950   1.437       .  S
C121        C122   1.383       .  A
C121       C3893   1.486       .  S
C122        C123   1.379       .  A
C122        H125   1.082       .  S
C123        C124   1.383   1_545  A
C123        H126   1.082   1_545  S
C124       C3998   1.485       .  S
N127        C131   1.359       .  A
N127        C128   1.361       .  A
N127       C3869   1.445       .  S
C128        C129   1.384       .  A
C128       C4229   1.480       .  S
C129        C130   1.370       .  A
C129        H132   1.082       .  S
C130        C131   1.379       .  A
C130        H133   1.082       .  S
C131       C3926   1.475       .  S
N134        C138   1.359       .  A
N134        C135   1.361       .  A
N134       C3878   1.447       .  S
C135        C136   1.382       .  A
C135       C4094   1.478       .  S
C136        C137   1.369       .  A
C136        H139   1.082       .  S
C137        C138   1.380       .  A
C137        H140   1.082       .  S
C138       C3902   1.475       .  S
N141        C145   1.360       .  A
N141        C142   1.362       .  A
N141       C3845   1.443       .  S
C142        C143   1.383       .  A
C142       C4301   1.485       .  S
C143        C144   1.372       .  A
C143        H146   1.082       .  S
C144        C145   1.380       .  A
C144        H147   1.082       .  S
C145       C3821   1.483       .  S
N148        C152   1.362       .  A
N148        C149   1.363       .  A
N148       C3854   1.442       .  S
C149        C150   1.383       .  A
C149       C4142   1.487       .  S
C150        C151   1.373       .  A
C150        H153   1.082       .  S
C151        C152   1.380       .  A
C151        H154   1.082       .  S
C152       C3797   1.485       .  S
N155        C159   1.359       .  A
N155        C156   1.359       .  A
N155       C3773   1.437       .  S
C156        C157   1.382       .  A
C156       C3830   1.491       .  S
C157        C158   1.376       .  A
C157        H160   1.082       .  S
C158        C159   1.384       .  A
C158        H161   1.082       .  S
C159       C3749   1.490       .  S
N162        C166   1.359       .  A
N162        C163   1.361       .  A
N162       C3782   1.436       .  S
C163        C164   1.384       .  A
C163       C3806   1.493       .  S
C164        C165   1.378       .  A
C164        H167   1.082       .  S
C165        C166   1.382       .  A
C165        H168   1.082       .  S
C166       C3725   1.491       .  S
N169        C173   1.366       .  A
N169        C170   1.366       .  A
N169       C3701   1.448       .  S
C170        C171   1.382       .  A
C170       C3686   1.490       .  S
C171        C172   1.369       .  A
C171        H174   1.082       .  S
C172        C173   1.382       .  A
C172        H175   1.082       .  S
C173       C3758   1.490       .  S
N176        C180   1.363       .  A
N176        C177   1.363       .  A
N176       C3710   1.441       .  S
C177        C178   1.383       .  A
C177       C3653   1.491       .  S
C178        C179   1.371       .  A
C178        H181   1.082       .  S
C179        C180   1.382       .  A
C179        H182   1.082       .  S
C180       C3734   1.489       .  S
N183        C187   1.358       .  A
N183        C184   1.360       .  A
N183       C3638   1.440       .  S
C184        C185   1.383       .  A
C184       C3581   1.482       .  S
C185        C186   1.370       .  A
C185        H188   1.082       .  S
C186        C187   1.380       .  A
C186        H189   1.082       .  S
C187       C3605   1.478       .  S
N190        C194   1.368       .  A
N190        C191   1.365       .  A
N190       C3629   1.448       .  S
C191        C192   1.378       .  A
C191       C3533   1.485       .  S
C192        C193   1.367       .  A
C192        H195   1.082       .  S
C193        C194   1.385       .  A
C193        H196   1.082       .  S
C194       C3557   1.497       .  S
N197        C201   1.358       .  A
N197        C198   1.359   1_655  A
N197       C3509   1.437       .  S
C198        C199   1.380   1_455  A
C198       C3485   1.481       .  S
C199        C200   1.376       .  A
C199        H202   1.082   1_655  S
C200        C201   1.384       .  A
C200        H203   1.082       .  S
C201       C3614   1.487       .  S
N204        C208   1.358   1_655  A
N204        C205   1.359       .  A
N204       C3518   1.440       .  S
C205        C206   1.381       .  A
C205       C3566   1.483       .  S
C206        C207   1.378   1_655  A
C206        H209   1.082       .  S
C207        C208   1.383       .  A
C207        H210   1.082       .  S
C208       C3461   1.486       .  S
N211        C215   1.365       .  A
N211        C212   1.361       .  A
N211       C3437   1.440       .  S
C212        C213   1.379       .  A
C212       C3413   1.481       .  S
C213        C214   1.371       .  A
C213        H216   1.082       .  S
C214        C215   1.386       .  A
C214        H217   1.082       .  S
C215       C3494   1.495       .  S
N218        C222   1.358       .  A
N218        C219   1.358       .  A
N218       C3446   1.444       .  S
C219        C220   1.383       .  A
C219       C3389   1.474       .  S
C220        C221   1.369       .  A
C220        H223   1.082       .  S
C221        C222   1.380       .  A
C221        H224   1.082       .  S
C222       C3470   1.473       .  S
O225       Ni233   1.916       .  S
O225        C235   1.281       .  A
O226       Ni233   1.925       .  S
O226        C236   1.283       .  A
O227       Ni233   1.916       .  S
O227        C237   1.281       .  A
O228       Ni233   1.910       .  S
O228        C238   1.280       .  A
O229       Ni234   1.925       .  S
O229        C238   1.283       .  A
O230       Ni234   1.927       .  S
O230        C237   1.284       .  A
O231       Ni234   1.925       .  S
O231        C236   1.284       .  A
O232       Ni234   1.923       .  S
O232        C235   1.282       .  A
Ni233      Ni234   2.385       .  S
C235       C3365   1.481       .  S
C236       C3662   1.495       .  S
C237       C3590   1.494       .  S
C238       C3341   1.478       .  S
O239       Ni247   1.926       .  S
O239        C249   1.283       .  A
O240       Ni247   1.933       .  S
O240        C250   1.285       .  A
O241       Ni247   1.918       .  S
O241        C251   1.283       .  A
O242       Ni247   1.914       .  S
O242        C252   1.280       .  A
O243       Ni248   1.912       .  S
O243        C252   1.281       .  A
O244       Ni248   1.921       .  S
O244        C251   1.282       .  A
O245       Ni248   1.919       .  S
O245        C250   1.282       .  A
O246       Ni248   1.917       .  S
O246        C249   1.281       .  A
Ni247      Ni248   2.384       .  S
C249       C3293   1.485       .  S
C250       C3317   1.500       .  S
C251       C4013   1.492       .  S
C252       C3269   1.473       .  S
O253       Ni261   1.911       .  S
O253        C263   1.280       .  A
O254       Ni261   1.915       .  S
O254        C264   1.281       .  A
O255       Ni261   1.919       .  S
O255        C265   1.282       .  A
O256       Ni261   1.913       .  S
O256        C266   1.282       .  A
O257       Ni262   1.920       .  S
O257        C266   1.282       .  A
O258       Ni262   1.925       .  S
O258        C265   1.284       .  A
O259       Ni262   1.930       .  S
O259        C264   1.283       .  A
O260       Ni262   1.923       .  S
O260        C263   1.283       .  A
Ni261      Ni262   2.384       .  S
C263       C3350   1.483       .  S
C264       C3245   1.486       .  S
C265       C3677   1.495       .  S
C266       C3278   1.485       .  S
O267       Ni275   1.924       .  S
O267        C277   1.282       .  A
O268       Ni275   1.930       .  S
O268        C278   1.284       .  A
O269       Ni275   1.940       .  S
O269        C279   1.285       .  A
O270       Ni275   1.935       .  S
O270        C280   1.285       .  A
O271       Ni276   1.910       .  S
O271        C280   1.280       .  A
O272       Ni276   1.908       .  S
O272        C279   1.279       .  A
O273       Ni276   1.918       .  S
O273        C278   1.282       .  A
O274       Ni276   1.916       .  S
O274        C277   1.282       .  A
Ni275      Ni276   2.384       .  S
C277       C3374   1.485       .  S
C278       C3974   1.496       .  S
C279       C3542   1.484       .  S
C280       C3302   1.490       .  S
N281        C285   1.363       .  A
N281        C282   1.361       .  A
N281       C3221   1.442       .  S
C282        C283   1.380       .  A
C282       C3254   1.480       .  S
C283        C284   1.366       .  A
C283        H286   1.082       .  S
C284        C285   1.384       .  A
C284        H287   1.082       .  S
C285       C3197   1.488       .  S
N288        C292   1.364       .  A
N288        C289   1.369       .  A
N288       C3230   1.451       .  S
C289        C290   1.386       .  A
C289       C3326   1.493       .  S
C290        C291   1.366       .  A
C290        H293   1.082       .  S
C291        C292   1.377       .  A
C291        H294   1.082       .  S
C292       C3173   1.479       .  S
N295        C299   1.358       .  A
N295        C296   1.359       .  A
N295       C3149   1.438       .  S
C296        C297   1.385       .  A
C296       C3125   1.488       .  S
C297        C298   1.376       .  A
C297        H300   1.082       .  S
C298        C299   1.379       .  A
C298        H301   1.082       .  S
C299       C3206   1.480       .  S
N302        C306   1.357       .  A
N302        C303   1.358       .  A
N302       C3158   1.439       .  S
C303        C304   1.381       .  A
C303       C3101   1.482       .  S
C304        C305   1.379       .  A
C304        H307   1.082       .  S
C305        C306   1.383       .  A
C305        H308   1.082       .  S
C306       C3182   1.485       .  S
N309        C313   1.355       .  A
N309        C310   1.355       .  A
N309       C3077   1.435       .  S
C310        C311   1.382       .  A
C310       C3053   1.478       .  S
C311        C312   1.374       .  A
C311        H314   1.082       .  S
C312        C313   1.382       .  A
C312        H315   1.082       .  S
C313       C3134   1.477       .  S
N316        C320   1.364       .  A
N316        C317   1.363       .  A
N316       C3086   1.444       .  S
C317        C318   1.381       .  A
C317       C3029   1.484       .  S
C318        C319   1.366       .  A
C318        H321   1.082       .  S
C319        C320   1.383       .  A
C319        H322   1.082       .  S
C320       C3110   1.489       .  S
O323       Ni331   1.901       .  S
O323        C333   1.278       .  A
O324       Ni331   1.908       .  S
O324        C334   1.279       .  A
O325       Ni331   1.925       .  S
O325        C335   1.284       .  A
O326       Ni331   1.922       .  S
O326        C336   1.283       .  A
O327       Ni332   1.914       .  S
O327        C336   1.280       .  A
O328       Ni332   1.913       .  S
O328        C335   1.281       .  A
O329       Ni332   1.925       .  S
O329        C334   1.284       .  A
O330       Ni332   1.924       .  S
O330        C333   1.283       .  A
Ni331      Ni332   2.386       .  S
C333       C2966   1.470       .  S
C334       C3005   1.488       .  S
C335       C3062   1.490       .  S
C336       C2990   1.480       .  S
O337       Ni345   1.921       .  S
O337        C347   1.282       .  A
O338       Ni345   1.923       .  S
O338        C348   1.282       .  A
O339       Ni345   1.917       .  S
O339        C349   1.282       .  A
O340       Ni345   1.917       .  S
O340        C350   1.281       .  A
O341       Ni346   1.912       .  S
O341        C350   1.280       .  A
O342       Ni346   1.922       .  S
O342        C349   1.283       .  A
O343       Ni346   1.920       .  S
O343        C348   1.282       .  A
O344       Ni346   1.911       .  S
O344        C347   1.281       .  A
Ni345      Ni346   2.386       .  S
C347       C2909   1.482       .  S
C348       C3422   1.484       .  S
C349       C2933   1.493       .  S
C350       C2894   1.472       .  S
O351       Ni359   1.919       .  S
O351        C361   1.282       .  A
O352       Ni359   1.923       .  S
O352        C362   1.283       .  A
O353       Ni359   1.925       .  S
O353        C363   1.283       .  A
O354       Ni359   1.920       .  S
O354        C364   1.282       .  A
O355       Ni360   1.913       .  S
O355        C364   1.281       .  A
O356       Ni360   1.912       .  S
O356        C363   1.281       .  A
O357       Ni360   1.916       .  S
O357        C362   1.281       .  A
O358       Ni360   1.913       .  S
O358        C361   1.281       .  A
Ni359      Ni360   2.386       .  S
C361       C2885   1.478       .  S
C362       C2861   1.490       .  S
C363       C3398   1.486       .  S
C364       C2981   1.480       .  S
O365       Ni373   1.906       .  S
O365        C375   1.279       .  A
O366       Ni373   1.907       .  S
O366        C376   1.280       .  A
O367       Ni373   1.928       .  S
O367        C377   1.283       .  A
O368       Ni373   1.921       .  S
O368        C378   1.283       .  A
O369       Ni374   1.908       .  S
O369        C378   1.279       .  A
O370       Ni374   1.918       .  S
O370        C377   1.282       .  A
O371       Ni374   1.930       .  S
O371        C376   1.283       .  A
O372       Ni374   1.924       .  S
O372        C375   1.283       .  A
Ni373      Ni374   2.388       .  S
C375       C2918   1.474       .  S
C376       C3038   1.480       .  S
C377       C2837   1.492       .  S
C378       C2957   1.474       .  S
N379        C383   1.359       .  A
N379        C380   1.359       .  A
N379       C2822   1.445       .  S
C380        C381   1.382       .  A
C380       C3014   1.478       .  S
C381        C382   1.370       .  A
C381        H384   1.082       .  S
C382        C383   1.381       .  A
C382        H385   1.082       .  S
C383       C2789   1.476       .  S
N386        C390   1.359       .  A
N386        C387   1.361       .  A
N386       C2813   1.443       .  S
C387        C388   1.383       .  A
C387       C2870   1.481       .  S
C388        C389   1.371       .  A
C388        H391   1.082       .  S
C389        C390   1.379       .  A
C389        H392   1.082       .  S
C390       C2765   1.479       .  S
N393        C397   1.359       .  A
N393        C394   1.356       .  A
N393       C2741   1.440       .  S
C394        C395   1.382       .  A
C394       C2798   1.481       .  S
C395        C396   1.376       .  A
C395        H398   1.082       .  S
C396        C397   1.384       .  A
C396        H399   1.082       .  S
C397       C2717   1.485       .  S
N400        C404   1.361       .  A
N400        C401   1.357       .  A
N400       C2750   1.438       .  S
C401        C402   1.381       .  A
C401       C2774   1.485       .  S
C402        C403   1.376       .  A
C402        H405   1.082       .  S
C403        C404   1.387       .  A
C403        H406   1.082       .  S
C404       C2693   1.493       .  S
N407        C411   1.363       .  A
N407        C408   1.366       .  A
N407       C2669   1.450       .  S
C408        C409   1.384       .  A
C408       C2645   1.487       .  S
C409        C410   1.368       .  A
C409        H412   1.082       .  S
C410        C411   1.378       .  A
C410        H413   1.082       .  S
C411       C2726   1.478       .  S
N414        C418   1.361       .  A
N414        C415   1.363       .  A
N414       C2678   1.447       .  S
C415        C416   1.382       .  A
C415       C2621   1.483       .  S
C416        C417   1.372       .  A
C416        H419   1.082       .  S
C417        C418   1.381       .  A
C417        H420   1.082       .  S
C418       C2702   1.483       .  S
N421        C425   1.365       .  A
N421        C422   1.368       .  A
N421       C2597   1.446       .  S
C422        C423   1.383       .  A
C422       C2549   1.493       .  S
C423        C424   1.368       .  A
C423        H426   1.082       .  S
C424        C425   1.380       .  A
C424        H427   1.082       .  S
C425       C2573   1.489       .  S
N428        C432   1.362       .  A
N428        C429   1.362       .  A
N428       C2606   1.443       .  S
C429        C430   1.382       .  A
C429       C2501   1.487       .  S
C430        C431   1.372       .  A
C430        H433   1.082       .  S
C431        C432   1.383       .  A
C431        H434   1.082       .  S
C432       C2525   1.489       .  S
N435        C439   1.359       .  A
N435        C436   1.358   1_556  A
N435       C2477   1.441       .  S
C436        C437   1.382       .  A
C436       C2453   1.483       .  S
C437        C438   1.377   1_554  A
C437        H440   1.082       .  S
C438        C439   1.383       .  A
C438        H441   1.082       .  S
C439       C2582   1.484       .  S
N442        C446   1.360   1_556  A
N442        C443   1.361       .  A
N442       C2486   1.441       .  S
C443        C444   1.385       .  A
C443       C2534   1.489       .  S
C444        C445   1.375   1_556  A
C444        H447   1.082       .  S
C445        C446   1.382       .  A
C445        H448   1.082       .  S
C446       C2438   1.487       .  S
N449        C453   1.362       .  A
N449        C450   1.364       .  A
N449       C2405   1.448       .  S
C450        C451   1.383       .  A
C450       C2942   1.484       .  S
C451        C452   1.370       .  A
C451        H454   1.082       .  S
C452        C453   1.379       .  A
C452        H455   1.082       .  S
C453       C2462   1.482       .  S
N456        C460   1.360       .  A
N456        C457   1.364       .  A
N456       C2414   1.444       .  S
C457        C458   1.384       .  A
C457       C2846   1.485       .  S
C458        C459   1.369       .  A
C458        H461   1.082       .  S
C459        C460   1.378       .  A
C459        H462   1.082       .  S
C460       C2429   1.478       .  S
N463        C467   1.359       .  A
N463        C464   1.360       .  A
N463       C2381   1.446       .  S
C464        C465   1.381       .  A
C464       C2333   1.473       .  S
C465        C466   1.366       .  A
C465        H468   1.082       .  S
C466        C467   1.381       .  A
C466        H469   1.082       .  S
C467       C2357   1.474       .  S
N470        C474   1.367       .  A
N470        C471   1.368       .  A
N470       C2390   1.443       .  S
C471        C472   1.383       .  A
C471       C2285   1.497       .  S
C472        C473   1.370       .  A
C472        H475   1.082       .  S
C473        C474   1.381       .  A
C473        H476   1.082       .  S
C474       C2318   1.497       .  S
N477        C481   1.358       .  A
N477        C478   1.357       .  A
N477       C2270   1.430       .  S
C478        C479   1.383       .  A
C478       C2237   1.491       .  S
C479        C480   1.381       .  A
C479        H482   1.082       .  S
C480        C481   1.385       .  A
C480        H483   1.082       .  S
C481       C2309   1.496   1_545  S
N484        C488   1.356       .  A
N484        C485   1.358       .  A
N484       C2261   1.435       .  S
C485        C486   1.383       .  A
C485       C2366   1.488   1_545  S
C486        C487   1.380       .  A
C486        H489   1.082       .  S
C487        C488   1.384       .  A
C487        H490   1.082       .  S
C488       C2213   1.490       .  S
N491        C495   1.362       .  A
N491        C492   1.362       .  A
N491       C2189   1.438       .  S
C492        C493   1.383       .  A
C492       C2165   1.493       .  S
C493        C494   1.374       .  A
C493        H496   1.082       .  S
C494        C495   1.384       .  A
C494        H497   1.082       .  S
C495       C2222   1.495       .  S
N498        C502   1.360       .  A
N498        C499   1.361       .  A
N498       C2198   1.442       .  S
C499        C500   1.383       .  A
C499       C2141   1.484       .  S
C500        C501   1.374       .  A
C500        H503   1.082       .  S
C501        C502   1.380       .  A
C501        H504   1.082       .  S
C502       C2246   1.483       .  S
O505       Ni513   1.920       .  S
O505        C515   1.283       .  A
O506       Ni513   1.923       .  S
O506        C516   1.282       .  A
O507       Ni513   1.915       .  S
O507        C517   1.280       .  A
O508       Ni513   1.913       .  S
O508        C518   1.281       .  A
O509       Ni514   1.914       .  S
O509        C518   1.281       .  A
O510       Ni514   1.917       .  S
O510        C517   1.282       .  A
O511       Ni514   1.920       .  S
O511        C516   1.283       .  A
O512       Ni514   1.922       .  S
O512        C515   1.282       .  A
Ni513      Ni514   2.385       .  S
C515       C2117   1.483       .  S
C516       C2630   1.491       .  S
C517       C2342   1.483       .  S
C518       C2093   1.481       .  S
O519       Ni527   1.911       .  S
O519        C529   1.280       .  A
O520       Ni527   1.921       .  S
O520        C530   1.283       .  A
O521       Ni527   1.928       .  S
O521        C531   1.284       .  A
O522       Ni527   1.923       .  S
O522        C532   1.282       .  A
O523       Ni528   1.917       .  S
O523        C532   1.281       .  A
O524       Ni528   1.926       .  S
O524        C531   1.283       .  A
O525       Ni528   1.933       .  S
O525        C530   1.284       .  A
O526       Ni528   1.926       .  S
O526        C529   1.283       .  A
Ni527      Ni528   2.382       .  S
C529       C2045   1.484       .  S
C530       C2069   1.500       .  S
C531       C2558   1.499       .  S
C532       C2021   1.483       .  S
O533       Ni541   1.913       .  S
O533        C543   1.281       .  A
O534       Ni541   1.924       .  S
O534        C544   1.283       .  A
O535       Ni541   1.931       .  S
O535        C545   1.284       .  A
O536       Ni541   1.925       .  S
O536        C546   1.283       .  A
O537       Ni542   1.908       .  S
O537        C546   1.280       .  A
O538       Ni542   1.915       .  S
O538        C545   1.281       .  A
O539       Ni542   1.917       .  S
O539        C544   1.282       .  A
O540       Ni542   1.919       .  S
O540        C543   1.282       .  A
Ni541      Ni542   2.385       .  S
C543       C2030   1.483       .  S
C544       C2654   1.493       .  S
C545       C1997   1.485       .  S
C546       C2102   1.481       .  S
O547       Ni555   1.909       .  S
O547        C557   1.279       .  A
O548       Ni555   1.920       .  S
O548        C558   1.281       .  A
O549       Ni555   1.933       .  S
O549        C559   1.285       .  A
O550       Ni555   1.928       .  S
O550        C560   1.284       .  A
O551       Ni556   1.911       .  S
O551        C560   1.280       .  A
O552       Ni556   1.920       .  S
O552        C559   1.281       .  A
O553       Ni556   1.938       .  S
O553        C558   1.287       .  A
O554       Ni556   1.929       .  S
O554        C557   1.284       .  A
Ni555      Ni556   2.382       .  S
C557       C2054   1.482       .  S
C558       C2294   1.504       .  S
C559       C2510   1.497       .  S
C560       C2126   1.487       .  S
N561        C565   1.366       .  A
N561        C562   1.363       .  A
N561       C1973   1.441       .  S
C562        C563   1.379       .  A
C562       C2006   1.484       .  S
C563        C564   1.371       .  A
C563        H566   1.082       .  S
C564        C565   1.385       .  A
C564        H567   1.082       .  S
C565       C1949   1.498       .  S
N568        C572   1.360       .  A
N568        C569   1.361       .  A
N568       C1982   1.436       .  S
C569        C570   1.384       .  A
C569       C2078   1.493       .  S
C570        C571   1.374       .  A
C570        H573   1.082       .  S
C571        C572   1.381       .  A
C571        H574   1.082       .  S
C572       C1925   1.487       .  S
N575        C579   1.353       .  A
N575        C576   1.354       .  A
N575       C1901   1.434       .  S
C576        C577   1.385       .  A
C576       C1877   1.485       .  S
C577        C578   1.381       .  A
C577        H580   1.082       .  S
C578        C579   1.382       .  A
C578        H581   1.082       .  S
C579       C1934   1.479       .  S
N582        C586   1.359       .  A
N582        C583   1.360       .  A
N582       C1910   1.435       .  S
C583        C584   1.384       .  A
C583       C1853   1.494       .  S
C584        C585   1.380       .  A
C584        H587   1.082       .  S
C585        C586   1.383       .  A
C585        H588   1.082       .  S
C586       C1958   1.492       .  S
N589        C593   1.362       .  A
N589        C590   1.362       .  A
N589       C1829   1.443       .  S
C590        C591   1.384       .  A
C590       C1805   1.486       .  S
C591        C592   1.369       .  A
C591        H594   1.082       .  S
C592        C593   1.380       .  A
C592        H595   1.082       .  S
C593       C1862   1.486       .  S
N596        C600   1.362       .  A
N596        C597   1.362       .  A
N596       C1838   1.440       .  S
C597        C598   1.382       .  A
C597       C1781   1.489       .  S
C598        C599   1.373       .  A
C598        H601   1.082       .  S
C599        C600   1.382       .  A
C599        H602   1.082       .  S
C600       C1886   1.489       .  S
O603       Ni611   1.913       .  S
O603        C613   1.280       .  A
O604       Ni611   1.916       .  S
O604        C614   1.281       .  A
O605       Ni611   1.927       .  S
O605        C615   1.284       .  A
O606       Ni611   1.923       .  S
O606        C616   1.283       .  A
O607       Ni612   1.913       .  S
O607        C616   1.281       .  A
O608       Ni612   1.916       .  S
O608        C615   1.282       .  A
O609       Ni612   1.927       .  S
O609        C614   1.283       .  A
O610       Ni612   1.922       .  S
O610        C613   1.283       .  A
Ni611      Ni612   2.384       .  S
C613       C1709   1.483       .  S
C614       C1757   1.485       .  S
C615       C1814   1.493       .  S
C616       C1733   1.486       .  S
O617       Ni625   1.917       .  S
O617        C627   1.281       .  A
O618       Ni625   1.921       .  S
O618        C628   1.283       .  A
O619       Ni625   1.920       .  S
O619        C629   1.282       .  A
O620       Ni625   1.916       .  S
O620        C630   1.281       .  A
O621       Ni626   1.911       .  S
O621        C630   1.281       .  A
O622       Ni626   1.919       .  S
O622        C629   1.282       .  A
O623       Ni626   1.930       .  S
O623        C628   1.284       .  A
O624       Ni626   1.926       .  S
O624        C627   1.283       .  A
Ni625      Ni626   2.383       .  S
C627       C1661   1.488       .  S
C628       C2174   1.497       .  S
C629       C1685   1.488       .  S
C630       C1646   1.479       .  S
O631       Ni639   1.911       .  S
O631        C641   1.281       .  A
O632       Ni639   1.919       .  S
O632        C642   1.281       .  A
O633       Ni639   1.928       .  S
O633        C643   1.283       .  A
O634       Ni639   1.921       .  S
O634        C644   1.282       .  A
O635       Ni640   1.919       .  S
O635        C644   1.281       .  A
O636       Ni640   1.931       .  S
O636        C643   1.284       .  A
O637       Ni640   1.934       .  S
O637        C642   1.285       .  A
O638       Ni640   1.927       .  S
O638        C641   1.283       .  A
Ni639      Ni640   2.383       .  S
C641       C1718   1.485       .  S
C642       C1613   1.500       .  S
C643       C1790   1.498       .  S
C644       C1670   1.484       .  S
O645       Ni653   1.910       .  S
O645        C655   1.280       .  A
O646       Ni653   1.919       .  S
O646        C656   1.282       .  A
O647       Ni653   1.927       .  S
O647        C657   1.283       .  A
O648       Ni653   1.923       .  S
O648        C658   1.283       .  A
O649       Ni654   1.915       .  S
O649        C658   1.280       .  A
O650       Ni654   1.918       .  S
O650        C657   1.280       .  A
O651       Ni654   1.919       .  S
O651        C656   1.282       .  A
O652       Ni654   1.915       .  S
O652        C655   1.282       .  A
Ni653      Ni654   2.387       .  S
C655       C1637   1.478       .  S
C656       C1589   1.486       .  S
C657       C2150   1.478       .  S
C658       C1742   1.480       .  S
N659        C663   1.359       .  A
N659        C660   1.360       .  A
N659       C1565   1.437       .  S
C660        C661   1.381       .  A
C660       C1517   1.483       .  S
C661        C662   1.373       .  A
C661        H664   1.082       .  S
C662        C663   1.384       .  A
C662        H665   1.082       .  S
C663       C1541   1.488       .  S
N666        C670   1.364       .  A
N666        C667   1.362       .  A
N666       C1574   1.444       .  S
C667        C668   1.380       .  A
C667       C1478   1.481       .  S
C668        C669   1.372       .  A
C668        H671   1.082       .  S
C669        C670   1.382       .  A
C669        H672   1.082       .  S
C670       C1502   1.488       .  S
N673        C677   1.360   1_554  A
N673        C674   1.358       .  A
N673       C1445   1.436       .  S
C674        C675   1.382       .  A
C674       C1430   1.491       .  S
C675        C676   1.381   1_554  A
C675        H678   1.082       .  S
C676        C677   1.386       .  A
C676        H679   1.082       .  S
C677       C1550   1.496       .  S
N680        C684   1.359   1_554  A
N680        C681   1.356       .  A
N680       C1454   1.433       .  S
C681        C682   1.382       .  A
C681       C1397   1.489       .  S
C682        C683   1.381   1_554  A
C682        H685   1.082       .  S
C683        C684   1.384       .  A
C683        H686   1.082       .  S
C684       C1493   1.493       .  S
N687        C691   1.364       .  A
N687        C688   1.363       .  A
N687       C1373   1.446       .  S
C688        C689   1.381       .  A
C688       C4214   1.483       .  S
C689        C690   1.368       .  A
C689        H692   1.082       .  S
C690        C691   1.382       .  A
C690        H693   1.082       .  S
C691       C1421   1.487       .  S
N694        C698   1.359       .  A
N694        C695   1.360       .  A
N694       C1382   1.438       .  S
C695        C696   1.383       .  A
C695       C4118   1.484       .  S
C696        C697   1.372       .  A
C696        H699   1.082       .  S
C697        C698   1.382       .  A
C697        H700   1.082       .  S
C698       C1406   1.485       .  S
N701        C705   1.362       .  A
N701        C702   1.362       .  A
N701       C1349   1.448       .  S
C702        C703   1.381       .  A
C702       C1766   1.478       .  S
C703        C704   1.371       .  A
C703        H706   1.082       .  S
C704        C705   1.380       .  A
C704        H707   1.082       .  S
C705       C1325   1.479       .  S
N708        C712   1.356       .  A
N708        C709   1.356       .  A
N708       C1358   1.439       .  S
C709        C710   1.381       .  A
C709       C1598   1.474       .  S
C710        C711   1.373       .  A
C710        H713   1.082       .  S
C711        C712   1.383       .  A
C711        H714   1.082       .  S
C712       C1301   1.478       .  S
N715        C719   1.357       .  A
N715        C716   1.355       .  A
N715       C1277   1.431       .  S
C716        C717   1.382       .  A
C716       C1334   1.486       .  S
C717        C718   1.379       .  A
C717        H720   1.082       .  S
C718        C719   1.385       .  A
C718        H721   1.082       .  S
C719       C1253   1.492       .  S
N722        C726   1.356       .  A
N722        C723   1.355       .  A
N722       C1286   1.439       .  S
C723        C724   1.382       .  A
C723       C1310   1.477       .  S
C724        C725   1.379       .  A
C724        H727   1.082       .  S
C725        C726   1.383       .  A
C725        H728   1.082       .  S
C726       C1229   1.483       .  S
N729        C733   1.361       .  A
N729        C730   1.362       .  A
N729       C1205   1.445       .  S
C730        C731   1.381       .  A
C730       C1181   1.480       .  S
C731        C732   1.371       .  A
C731        H734   1.082       .  S
C732        C733   1.382       .  A
C732        H735   1.082       .  S
C733       C1262   1.483       .  S
N736        C740   1.361       .  A
N736        C737   1.359       .  A
N736       C1214   1.439       .  S
C737        C738   1.381       .  A
C737       C1157   1.482       .  S
C738        C739   1.373       .  A
C738        H741   1.082       .  S
C739        C740   1.385       .  A
C739        H742   1.082       .  S
C740       C1238   1.491       .  S
N743        C747   1.359       .  A
N743        C744   1.361       .  A
N743       C1133   1.440       .  S
C744        C745   1.383       .  A
C744       C1085   1.486       .  S
C745        C746   1.372       .  A
C745        H748   1.082       .  S
C746        C747   1.382       .  A
C746        H749   1.082       .  S
C747       C1109   1.485       .  S
N750        C754   1.363       .  A
N750        C751   1.362       .  A
N750       C1142   1.446       .  S
C751        C752   1.380       .  A
C751       C1037   1.482       .  S
C752        C753   1.372       .  A
C752        H755   1.082       .  S
C753        C754   1.382       .  A
C753        H756   1.082       .  S
C754       C1061   1.486       .  S
N757        C761   1.353       .  A
N757        C758   1.355   1_655  A
N757       C1013   1.436       .  S
C758        C759   1.383   1_455  A
C758        C989   1.480       .  S
C759        C760   1.380       .  A
C759        H762   1.082   1_655  S
C760        C761   1.382       .  A
C760        H763   1.082       .  S
C761       C1118   1.479       .  S
N764        C768   1.357       .  A
N764        C765   1.355   1_655  A
N764       C1022   1.430       .  S
C765        C766   1.381   1_455  A
C765        C974   1.485       .  S
C766        C767   1.381       .  A
C766        H769   1.082   1_655  S
C767        C768   1.385       .  A
C767        H770   1.082       .  S
C768       C1070   1.494       .  S
N771        C775   1.363       .  A
N771        C772   1.363       .  A
N771        C941   1.447       .  S
C772        C773   1.380       .  A
C772       C1694   1.481       .  S
C773        C774   1.366       .  A
C773        H776   1.082       .  S
C774        C775   1.383       .  A
C774        H777   1.082       .  S
C775        C998   1.484       .  S
N778        C782   1.365       .  A
N778        C779   1.365       .  A
N778        C950   1.448       .  S
C779        C780   1.381       .  A
C779       C1622   1.482       .  S
C780        C781   1.368       .  A
C780        H783   1.082       .  S
C781        C782   1.381       .  A
C781        H784   1.082       .  S
C782        C965   1.486       .  S
O785       Ni793   1.918       .  S
O785        C795   1.281       .  A
O786       Ni793   1.930       .  S
O786        C796   1.284       .  A
O787       Ni793   1.923       .  S
O787        C797   1.283       .  A
O788       Ni793   1.916       .  S
O788        C798   1.281       .  A
O789       Ni794   1.923       .  S
O789        C798   1.283       .  A
O790       Ni794   1.931       .  S
O790        C797   1.284       .  A
O791       Ni794   1.922       .  S
O791        C796   1.283       .  A
O792       Ni794   1.909       .  S
O792        C795   1.279       .  A
Ni793      Ni794   2.384       .  S
C795        C917   1.473       .  S
C796       C1166   1.496       .  S
C797       C1526   1.498       .  S
C798        C893   1.487       .  S
O799       Ni807   1.913       .  S
O799        C809   1.281       .  A
O800       Ni807   1.917       .  S
O800        C810   1.282       .  A
O801       Ni807   1.913       .  S
O801        C811   1.281       .  A
O802       Ni807   1.906       .  S
O802        C812   1.279       .  A
O803       Ni808   1.923       .  S
O803        C812   1.283       .  A
O804       Ni808   1.928       .  S
O804        C811   1.284       .  A
O805       Ni808   1.921       .  S
O805        C810   1.281       .  A
O806       Ni808   1.916       .  S
O806        C809   1.281       .  A
Ni807      Ni808   2.385       .  S
C809        C869   1.485       .  S
C810       C4469   1.483       .  S
C811       C1094   1.493       .  S
C812        C845   1.477       .  S
O813       Ni821   1.927       .  S
O813        C823   1.283       .  A
O814       Ni821   1.927       .  S
O814        C824   1.284       .  A
O815       Ni821   1.917       .  S
O815        C825   1.281       .  A
O816       Ni821   1.910       .  S
O816        C826   1.280       .  A
O817       Ni822   1.921       .  S
O817        C826   1.282       .  A
O818       Ni822   1.926       .  S
O818        C825   1.283       .  A
O819       Ni822   1.920       .  S
O819        C824   1.282       .  A
O820       Ni822   1.912       .  S
O820        C823   1.281       .  A
Ni821      Ni822   2.384       .  S
C823        C902   1.484       .  S
C824       C4526   1.496       .  S
C825       C1190   1.485       .  S
C826        C854   1.482       .  S
O827       Ni835   1.910       .  S
O827        C837   1.280       .  A
O828       Ni835   1.917       .  S
O828        C838   1.281       .  A
O829       Ni835   1.930       .  S
O829        C839   1.284       .  A
O830       Ni835   1.921       .  S
O830        C840   1.283       .  A
O831       Ni836   1.914       .  S
O831        C840   1.280       .  A
O832       Ni836   1.917       .  S
O832        C839   1.281       .  A
O833       Ni836   1.923       .  S
O833        C838   1.283       .  A
O834       Ni836   1.915       .  S
O834        C837   1.281       .  A
Ni835      Ni836   2.386       .  S
C837        C926   1.481       .  S
C838       C1046   1.484       .  S
C839       C1469   1.492       .  S
C840        C878   1.479       .  S
C841        C842   1.405       .  A
C841        C846   1.400       .  A
C841        H851   1.083       .  S
C842        C843   1.408       .  A
C842        C847   1.483       .  S
C843        C844   1.396       .  A
C843        O848   1.372       .  S
C844        C845   1.404       .  A
C844        H849   1.084       .  S
C845        C846   1.409       .  A
C846        O850   1.371       .  S
C847        C852   1.408       .  A
C847        C856   1.404       .  A
O848        H864   0.991       .  S
O850        H861   0.992       .  S
C852        C853   1.398       .  A
C852        O857   1.372       .  S
C853        C854   1.406       .  A
C853        H858   1.083       .  S
C854        C855   1.411       .  A
C855        C856   1.399       .  A
C855        O859   1.371       .  S
C856        H860   1.084       .  S
O857        H862   0.991       .  S
O859        H863   0.992       .  S
C865        C866   1.403       .  A
C865        C870   1.399       .  A
C865        H875   1.084       .  S
C866        C867   1.409       .  A
C866        C871   1.486       .  S
C867        C868   1.401       .  A
C867        O872   1.373       .  S
C868        C869   1.407       .  A
C868        H873   1.083       .  S
C869        C870   1.413       .  A
C870        O874   1.371       .  S
C871        C876   1.410       .  A
C871        C880   1.405       .  A
O872        H888   0.993       .  S
O874        H885   0.992       .  S
C876        C877   1.398       .  A
C876        O881   1.371       .  S
C877        C878   1.403       .  A
C877        H882   1.084       .  S
C878        C879   1.411       .  A
C879        C880   1.401       .  A
C879        O883   1.372       .  S
C880        H884   1.084       .  S
O881        H886   0.991       .  S
O883        H887   0.990       .  S
C889        C890   1.403       .  A
C889        C894   1.401       .  A
C889        H899   1.084       .  S
C890        C891   1.410       .  A
C890        C895   1.488       .  S
C891        C892   1.403       .  A
C891        O896   1.373       .  S
C892        C893   1.405       .  A
C892        H897   1.083       .  S
C893        C894   1.414       .  A
C894        O898   1.371       .  S
C895        C900   1.408       .  A
C895        C904   1.406       .  A
O896        H912   0.994       .  S
O898        H909   0.992       .  S
C900        C901   1.397       .  A
C900        O905   1.371       .  S
C901        C902   1.405       .  A
C901        H906   1.084       .  S
C902        C903   1.412       .  A
C903        C904   1.405       .  A
C903        O907   1.372       .  S
C904        H908   1.084       .  S
O905        H910   0.993       .  S
O907        H911   0.991       .  S
C913        C914   1.402       .  A
C913        C918   1.396       .  A
C913        H923   1.084       .  S
C914        C915   1.409       .  A
C914        C919   1.478       .  S
C915        C916   1.399       .  A
C915        O920   1.372       .  S
C916        C917   1.403       .  A
C916        H921   1.084       .  S
C917        C918   1.409       .  A
C918        O922   1.372       .  S
C919        C924   1.407       .  A
C919        C928   1.401       .  A
O920        H936   0.992       .  S
O922        H933   0.993       .  S
C924        C925   1.397       .  A
C924        O929   1.372       .  S
C925        C926   1.407       .  A
C925        H930   1.083       .  S
C926        C927   1.412       .  A
C927        C928   1.397       .  A
C927        O931   1.371       .  S
C928        H932   1.084       .  S
O929        H934   0.991       .  S
O931        H935   0.992       .  S
C937        C938   1.405       .  A
C937        C942   1.401       .  A
C937        H947   1.083       .  S
C938        C939   1.412       .  A
C938        C943   1.495       .  S
C939        C940   1.406       .  A
C939        O944   1.371       .  S
C940        C941   1.405       .  A
C940        H945   1.083       .  S
C941        C942   1.410       .  A
C942        O946   1.371       .  S
C943        C948   1.410       .  A
C943        C952   1.408       .  A
O944        H960   0.992       .  S
O946        H957   0.991       .  S
C948        C949   1.398       .  A
C948        O953   1.372       .  S
C949        C950   1.404       .  A
C949        H954   1.083       .  S
C950        C951   1.411       .  A
C951        C952   1.410       .  A
C951        O955   1.371       .  S
C952        H956   1.083       .  S
O953        H958   0.992       .  S
O955        H959   0.994       .  S
C961        C962   1.404       .  A
C961        C966   1.400       .  A
C961        H971   1.084       .  S
C962        C963   1.412       .  A
C962        C967   1.491       .  S
C963        C964   1.407       .  A
C963        O968   1.371       .  S
C964        C965   1.404       .  A
C964        H969   1.083       .  S
C965        C966   1.409       .  A
C966        O970   1.372       .  S
C967        C972   1.410       .  A
C967        C976   1.406       .  A
O968        H984   0.992       .  S
O970        H981   0.993       .  S
C972        C973   1.404       .  A
C972        O977   1.371       .  S
C973        C974   1.404       .  A
C973        H978   1.083       .  S
C974        C975   1.407       .  A
C975        C976   1.404       .  A
C975        O979   1.372       .  S
C976        H980   1.084       .  S
O977        H982   0.990       .  S
O979        H983   0.991       .  S
C985        C986   1.410       .  A
C985        C990   1.404       .  A
C985        H995   1.082       .  S
C986        C987   1.415       .  A
C986        C991   1.499       .  S
C987        C988   1.399       .  A
C987        O992   1.372       .  S
C988        C989   1.399       .  A
C988        H993   1.084       .  S
C989        C990   1.406       .  A
C990        O994   1.372       .  S
C991        C996   1.417       .  A
C991       C1000   1.405       .  A
O992       H1008   0.990       .  S
O994       H1005   0.990       .  S
C996        C997   1.409       .  A
C996       O1001   1.371       .  S
C997        C998   1.404       .  A
C997       H1002   1.083       .  S
C998        C999   1.407       .  A
C999       C1000   1.393       .  A
C999       O1003   1.372       .  S
C1000      H1004   1.082       .  S
O1001      H1006   0.991       .  S
O1003      H1007   0.991       .  S
C1009      C1010   1.406       .  A
C1009      C1014   1.394       .  A
C1009      H1019   1.083   1_655  S
C1010      C1011   1.411       .  A
C1010      C1015   1.484       .  S
C1011      C1012   1.400       .  A
C1011      O1016   1.373       .  S
C1012      C1013   1.402       .  A
C1012      H1017   1.083       .  S
C1013      C1014   1.404       .  A
C1014      O1018   1.371   1_655  S
C1015      C1020   1.412       .  A
C1015      C1024   1.406       .  A
O1016      H1032   0.991       .  S
O1018      H1029   0.992   1_455  S
C1020      C1021   1.402       .  A
C1020      O1025   1.373       .  S
C1021      C1022   1.397       .  A
C1021      H1026   1.083       .  S
C1022      C1023   1.401       .  A
C1023      C1024   1.395       .  A
C1023      O1027   1.371       .  S
C1024      H1028   1.084       .  S
O1025      H1030   0.992       .  S
O1027      H1031   0.991       .  S
C1033      C1034   1.406       .  A
C1033      C1038   1.400       .  A
C1033      H1043   1.083       .  S
C1034      C1035   1.416       .  A
C1034      C1039   1.499       .  S
C1035      C1036   1.406       .  A
C1035      O1040   1.371       .  S
C1036      C1037   1.401       .  A
C1036      H1041   1.084       .  S
C1037      C1038   1.407       .  A
C1038      O1042   1.372       .  S
C1039      C1044   1.416       .  A
C1039      C1048   1.406       .  A
O1040      H1056   0.992       .  S
O1042      H1053   0.992       .  S
C1044      C1045   1.402       .  A
C1044      O1049   1.371       .  S
C1045      C1046   1.402       .  A
C1045      H1050   1.084       .  S
C1046      C1047   1.412       .  A
C1047      C1048   1.403       .  A
C1047      O1051   1.372       .  S
C1048      H1052   1.083       .  S
O1049      H1054   0.991       .  S
O1051      H1055   0.991       .  S
C1057      C1058   1.406       .  A
C1057      C1062   1.404       .  A
C1057      H1067   1.083       .  S
C1058      C1059   1.415       .  A
C1058      C1063   1.500       .  S
C1059      C1060   1.407       .  A
C1059      O1064   1.371       .  S
C1060      C1061   1.402       .  A
C1060      H1065   1.084       .  S
C1061      C1062   1.409       .  A
C1062      O1066   1.372       .  S
C1063      C1068   1.413       .  A
C1063      C1072   1.407       .  A
O1064      H1080   0.992       .  S
O1066      H1077   0.992       .  S
C1068      C1069   1.403       .  A
C1068      O1073   1.372       .  S
C1069      C1070   1.404       .  A
C1069      H1074   1.084       .  S
C1070      C1071   1.411       .  A
C1071      C1072   1.407       .  A
C1071      O1075   1.369       .  S
C1072      H1076   1.083       .  S
O1073      H1078   0.992       .  S
O1075      H1079   0.991       .  S
C1081      C1082   1.401       .  A
C1081      C1086   1.402       .  A
C1081      H1091   1.084       .  S
C1082      C1083   1.411       .  A
C1082      C1087   1.487       .  S
C1083      C1084   1.404       .  A
C1083      O1088   1.371       .  S
C1084      C1085   1.403       .  A
C1084      H1089   1.083       .  S
C1085      C1086   1.412       .  A
C1086      O1090   1.373       .  S
C1087      C1092   1.408       .  A
C1087      C1096   1.401       .  A
O1088      H1104   0.992       .  S
O1090      H1101   0.992       .  S
C1092      C1093   1.406       .  A
C1092      O1097   1.372       .  S
C1093      C1094   1.409       .  A
C1093      H1098   1.083       .  S
C1094      C1095   1.415       .  A
C1095      C1096   1.400       .  A
C1095      O1099   1.372       .  S
C1096      H1100   1.084       .  S
O1097      H1102   0.991       .  S
O1099      H1103   0.992       .  S
C1105      C1106   1.406       .  A
C1105      C1110   1.407       .  A
C1105      H1115   1.083       .  S
C1106      C1107   1.410       .  A
C1106      C1111   1.491       .  S
C1107      C1108   1.397       .  A
C1107      O1112   1.372       .  S
C1108      C1109   1.403       .  A
C1108      H1113   1.084       .  S
C1109      C1110   1.410       .  A
C1110      O1114   1.371       .  S
C1111      C1116   1.413       .  A
C1111      C1120   1.406       .  A
O1112      H1128   0.993       .  S
O1114      H1125   0.992       .  S
C1116      C1117   1.403       .  A
C1116      O1121   1.372       .  S
C1117      C1118   1.402       .  A
C1117      H1122   1.084       .  S
C1118      C1119   1.405       .  A
C1119      C1120   1.400       .  A
C1119      O1123   1.371       .  S
C1120      H1124   1.083       .  S
O1121      H1126   0.991       .  S
O1123      H1127   0.993       .  S
C1129      C1130   1.407       .  A
C1129      C1134   1.398       .  A
C1129      H1139   1.083       .  S
C1130      C1131   1.414       .  A
C1130      C1135   1.495       .  S
C1131      C1132   1.408       .  A
C1131      O1136   1.373       .  S
C1132      C1133   1.403       .  A
C1132      H1137   1.083       .  S
C1133      C1134   1.402       .  A
C1134      O1138   1.371       .  S
C1135      C1140   1.413       .  A
C1135      C1144   1.406       .  A
O1136      H1152   0.992       .  S
O1138      H1149   0.990       .  S
C1140      C1141   1.406       .  A
C1140      O1145   1.372       .  S
C1141      C1142   1.404       .  A
C1141      H1146   1.083       .  S
C1142      C1143   1.409       .  A
C1143      C1144   1.399       .  A
C1143      O1147   1.370       .  S
C1144      H1148   1.084       .  S
O1145      H1150   0.993       .  S
O1147      H1151   0.991       .  S
C1153      C1154   1.409       .  A
C1153      C1158   1.406       .  A
C1153      H1163   1.083       .  S
C1154      C1155   1.410       .  A
C1154      C1159   1.496       .  S
C1155      C1156   1.403       .  A
C1155      O1160   1.371       .  S
C1156      C1157   1.403       .  A
C1156      H1161   1.084       .  S
C1157      C1158   1.407       .  A
C1158      O1162   1.371       .  S
C1159      C1164   1.410       .  A
C1159      C1168   1.406       .  A
O1160      H1176   0.992       .  S
O1162      H1173   0.992       .  S
C1164      C1165   1.403       .  A
C1164      O1169   1.371       .  S
C1165      C1166   1.407       .  A
C1165      H1170   1.083       .  S
C1166      C1167   1.416       .  A
C1167      C1168   1.407       .  A
C1167      O1171   1.372       .  S
C1168      H1172   1.083       .  S
O1169      H1174   0.992       .  S
O1171      H1175   0.991       .  S
C1177      C1178   1.407       .  A
C1177      C1182   1.406       .  A
C1177      H1187   1.083       .  S
C1178      C1179   1.412       .  A
C1178      C1183   1.495       .  S
C1179      C1180   1.401       .  A
C1179      O1184   1.372       .  S
C1180      C1181   1.402       .  A
C1180      H1185   1.084       .  S
C1181      C1182   1.408       .  A
C1182      O1186   1.372       .  S
C1183      C1188   1.411       .  A
C1183      C1192   1.407       .  A
O1184      H1200   0.990       .  S
O1186      H1197   0.992       .  S
C1188      C1189   1.406       .  A
C1188      O1193   1.371       .  S
C1189      C1190   1.407       .  A
C1189      H1194   1.084       .  S
C1190      C1191   1.409       .  A
C1191      C1192   1.401       .  A
C1191      O1195   1.372       .  S
C1192      H1196   1.083       .  S
O1193      H1198   0.991       .  S
O1195      H1199   0.991       .  S
C1201      C1202   1.403       .  A
C1201      C1206   1.403       .  A
C1201      H1211   1.083       .  S
C1202      C1203   1.408       .  A
C1202      C1207   1.485       .  S
C1203      C1204   1.403       .  A
C1203      O1208   1.372       .  S
C1204      C1205   1.405       .  A
C1204      H1209   1.083       .  S
C1205      C1206   1.410       .  A
C1206      O1210   1.371       .  S
C1207      C1212   1.408       .  A
C1207      C1216   1.406       .  A
O1208      H1224   0.990       .  S
O1210      H1221   0.991       .  S
C1212      C1213   1.401       .  A
C1212      O1217   1.371       .  S
C1213      C1214   1.402       .  A
C1213      H1218   1.082       .  S
C1214      C1215   1.406       .  A
C1215      C1216   1.405       .  A
C1215      O1219   1.371       .  S
C1216      H1220   1.083       .  S
O1217      H1222   0.992       .  S
O1219      H1223   0.991       .  S
C1225      C1226   1.406       .  A
C1225      C1230   1.403       .  A
C1225      H1235   1.083       .  S
C1226      C1227   1.409       .  A
C1226      C1231   1.487       .  S
C1227      C1228   1.401       .  A
C1227      O1232   1.372       .  S
C1228      C1229   1.402       .  A
C1228      H1233   1.084       .  S
C1229      C1230   1.409       .  A
C1230      O1234   1.372       .  S
C1231      C1236   1.411       .  A
C1231      C1240   1.401       .  A
O1232      H1248   0.992       .  S
O1234      H1245   0.992       .  S
C1236      C1237   1.407       .  A
C1236      O1241   1.371       .  S
C1237      C1238   1.406       .  A
C1237      H1242   1.082       .  S
C1238      C1239   1.414       .  A
C1239      C1240   1.397       .  A
C1239      O1243   1.372       .  S
C1240      H1244   1.084       .  S
O1241      H1246   0.992       .  S
O1243      H1247   0.992       .  S
C1249      C1250   1.402       .  A
C1249      C1254   1.401       .  A
C1249      H1259   1.084       .  S
C1250      C1251   1.409       .  A
C1250      C1255   1.487       .  S
C1251      C1252   1.406       .  A
C1251      O1256   1.373       .  S
C1252      C1253   1.405       .  A
C1252      H1257   1.080       .  S
C1253      C1254   1.413       .  A
C1254      O1258   1.372       .  S
C1255      C1260   1.408       .  A
C1255      C1264   1.408       .  A
O1256      H1272   0.992       .  S
O1258      H1269   0.990       .  S
C1260      C1261   1.398       .  A
C1260      O1265   1.372       .  S
C1261      C1262   1.402       .  A
C1261      H1266   1.084       .  S
C1262      C1263   1.409       .  A
C1263      C1264   1.407       .  A
C1263      O1267   1.371       .  S
C1264      H1268   1.083       .  S
O1265      H1270   0.993       .  S
O1267      H1271   0.991       .  S
C1273      C1274   1.406       .  A
C1273      C1278   1.399       .  A
C1273      H1283   1.083       .  S
C1274      C1275   1.410       .  A
C1274      C1279   1.480       .  S
C1275      C1276   1.397       .  A
C1275      O1280   1.373       .  S
C1276      C1277   1.397       .  A
C1276      H1281   1.083       .  S
C1277      C1278   1.403       .  A
C1278      O1282   1.371       .  S
C1279      C1284   1.409       .  A
C1279      C1288   1.404       .  A
O1280      H1296   0.992       .  S
O1282      H1293   0.993       .  S
C1284      C1285   1.394       .  A
C1284      O1289   1.372       .  S
C1285      C1286   1.401       .  A
C1285      H1290   1.083       .  S
C1286      C1287   1.409       .  A
C1287      C1288   1.399       .  A
C1287      O1291   1.371       .  S
C1288      H1292   1.084       .  S
O1289      H1294   0.991       .  S
O1291      H1295   0.992       .  S
C1297      C1298   1.407       .  A
C1297      C1302   1.404       .  A
C1297      H1307   1.083       .  S
C1298      C1299   1.412       .  A
C1298      C1303   1.490       .  S
C1299      C1300   1.395       .  A
C1299      O1304   1.372       .  S
C1300      C1301   1.400       .  A
C1300      H1305   1.084       .  S
C1301      C1302   1.409       .  A
C1302      O1306   1.371       .  S
C1303      C1308   1.414       .  A
C1303      C1312   1.406       .  A
O1304      H1320   0.992       .  S
O1306      H1317   0.992       .  S
C1308      C1309   1.402       .  A
C1308      O1313   1.372       .  S
C1309      C1310   1.401       .  A
C1309      H1314   1.084       .  S
C1310      C1311   1.405       .  A
C1311      C1312   1.399       .  A
C1311      O1315   1.372       .  S
C1312      H1316   1.083       .  S
O1313      H1318   0.992       .  S
O1315      H1319   0.993       .  S
C1321      C1322   1.407       .  A
C1321      C1326   1.402       .  A
C1321      H1331   1.083       .  S
C1322      C1323   1.413       .  A
C1322      C1327   1.494       .  S
C1323      C1324   1.402       .  A
C1323      O1328   1.372       .  S
C1324      C1325   1.401       .  A
C1324      H1329   1.084       .  S
C1325      C1326   1.408       .  A
C1326      O1330   1.372       .  S
C1327      C1332   1.412       .  A
C1327      C1336   1.406       .  A
O1328      H1344   0.992       .  S
O1330      H1341   0.992       .  S
C1332      C1333   1.399       .  A
C1332      O1337   1.372       .  S
C1333      C1334   1.402       .  A
C1333      H1338   1.084       .  S
C1334      C1335   1.409       .  A
C1335      C1336   1.407       .  A
C1335      O1339   1.372       .  S
C1336      H1340   1.083       .  S
O1337      H1342   0.993       .  S
O1339      H1343   0.991       .  S
C1345      C1346   1.406       .  A
C1345      C1350   1.400       .  A
C1345      H1355   1.084       .  S
C1346      C1347   1.411       .  A
C1346      C1351   1.494       .  S
C1347      C1348   1.404       .  A
C1347      O1352   1.372       .  S
C1348      C1349   1.404       .  A
C1348      H1353   1.079       .  S
C1349      C1350   1.411       .  A
C1350      O1354   1.369       .  S
C1351      C1356   1.413       .  A
C1351      C1360   1.407       .  A
O1352      H1368   0.992       .  S
O1354      H1365   0.991       .  S
C1356      C1357   1.408       .  A
C1356      O1361   1.373       .  S
C1357      C1358   1.402       .  A
C1357      H1362   1.083       .  S
C1358      C1359   1.402       .  A
C1359      C1360   1.398       .  A
C1359      O1363   1.371       .  S
C1360      H1364   1.083       .  S
O1361      H1366   0.992       .  S
O1363      H1367   0.991       .  S
C1369      C1370   1.407       .  A
C1369      C1374   1.404       .  A
C1369      H1379   1.083       .  S
C1370      C1371   1.414       .  A
C1370      C1375   1.498       .  S
C1371      C1372   1.403       .  A
C1371      O1376   1.371       .  S
C1372      C1373   1.403       .  A
C1372      H1377   1.083       .  S
C1373      C1374   1.408       .  A
C1374      O1378   1.372       .  S
C1375      C1380   1.415       .  A
C1375      C1384   1.410       .  A
O1376      H1392   0.991       .  S
O1378      H1389   0.993       .  S
C1380      C1381   1.402       .  A
C1380      O1385   1.372       .  S
C1381      C1382   1.398       .  A
C1381      H1386   1.083       .  S
C1382      C1383   1.404       .  A
C1383      C1384   1.405       .  A
C1383      O1387   1.371       .  S
C1384      H1388   1.083       .  S
O1385      H1390   0.992       .  S
O1387      H1391   0.993       .  S
C1393      C1394   1.407       .  A
C1393      C1398   1.403       .  A
C1393      H1403   1.084       .  S
C1394      C1395   1.414       .  A
C1394      C1399   1.498       .  S
C1395      C1396   1.408       .  A
C1395      O1400   1.372       .  S
C1396      C1397   1.403       .  A
C1396      H1401   1.084       .  S
C1397      C1398   1.407       .  A
C1398      O1402   1.372       .  S
C1399      C1404   1.414       .  A
C1399      C1408   1.405       .  A
O1400      H1416   0.993       .  S
O1402      H1413   0.990       .  S
C1404      C1405   1.412       .  A
C1404      O1409   1.373       .  S
C1405      C1406   1.404       .  A
C1405      H1410   1.083       .  S
C1406      C1407   1.407       .  A
C1407      C1408   1.398       .  A
C1407      O1411   1.372       .  S
C1408      H1412   1.083       .  S
O1409      H1414   0.991       .  S
O1411      H1415   0.994       .  S
C1417      C1418   1.410       .  A
C1417      C1422   1.408       .  A
C1417      H1427   1.083       .  S
C1418      C1419   1.412       .  A
C1418      C1423   1.498       .  S
C1419      C1420   1.398       .  A
C1419      O1424   1.372       .  S
C1420      C1421   1.404       .  A
C1420      H1425   1.084       .  S
C1421      C1422   1.409       .  A
C1422      O1426   1.371       .  S
C1423      C1428   1.413       .  A
C1423      C1432   1.408       .  A
O1424      H1440   0.993       .  S
O1426      H1437   0.993       .  S
C1428      C1429   1.403       .  A
C1428      O1433   1.372       .  S
C1429      C1430   1.403       .  A
C1429      H1434   1.084       .  S
C1430      C1431   1.410       .  A
C1431      C1432   1.403       .  A
C1431      O1435   1.371       .  S
C1432      H1436   1.083       .  S
O1433      H1438   0.991       .  S
O1435      H1439   0.992       .  S
C1441      C1442   1.400   1_556  A
C1441      C1446   1.396       .  A
C1441      H1451   1.084       .  S
C1442      C1443   1.403       .  A
C1442      C1447   1.465       .  S
C1443      C1444   1.396       .  A
C1443      O1448   1.372       .  S
C1444      C1445   1.403       .  A
C1444      H1449   1.083       .  S
C1445      C1446   1.407   1_554  A
C1446      O1450   1.371       .  S
C1447      C1452   1.403       .  A
C1447      C1456   1.401   1_554  A
O1448      H1464   0.993       .  S
O1450      H1461   0.991       .  S
C1452      C1453   1.393       .  A
C1452      O1457   1.372       .  S
C1453      C1454   1.401       .  A
C1453      H1458   1.083       .  S
C1454      C1455   1.407   1_554  A
C1455      C1456   1.399       .  A
C1455      O1459   1.371       .  S
C1456      H1460   1.084       .  S
O1457      H1462   0.992       .  S
O1459      H1463   0.992       .  S
C1465      C1466   1.406       .  A
C1465      C1470   1.402       .  A
C1465      H1475   1.084       .  S
C1466      C1467   1.412       .  A
C1466      C1471   1.498       .  S
C1467      C1468   1.408       .  A
C1467      O1472   1.372       .  S
C1468      C1469   1.407       .  A
C1468      H1473   1.083       .  S
C1469      C1470   1.412       .  A
C1470      O1474   1.372       .  S
C1471      C1476   1.412       .  A
C1471      C1480   1.409       .  A
O1472      H1488   0.993       .  S
O1474      H1485   0.991       .  S
C1476      C1477   1.406       .  A
C1476      O1481   1.372       .  S
C1477      C1478   1.402       .  A
C1477      H1482   1.084       .  S
C1478      C1479   1.407       .  A
C1479      C1480   1.405       .  A
C1479      O1483   1.372       .  S
C1480      H1484   1.084       .  S
O1481      H1486   0.993       .  S
O1483      H1487   0.991       .  S
C1489      C1490   1.407       .  A
C1489      C1494   1.408       .  A
C1489      H1499   1.083       .  S
C1490      C1491   1.411       .  A
C1490      C1495   1.497       .  S
C1491      C1492   1.404       .  A
C1491      O1496   1.372       .  S
C1492      C1493   1.405       .  A
C1492      H1497   1.084       .  S
C1493      C1494   1.410       .  A
C1494      O1498   1.372       .  S
C1495      C1500   1.410       .  A
C1495      C1504   1.409       .  A
O1496      H1512   0.992       .  S
O1498      H1509   0.993       .  S
C1500      C1501   1.402       .  A
C1500      O1505   1.372       .  S
C1501      C1502   1.405       .  A
C1501      H1506   1.084       .  S
C1502      C1503   1.408       .  A
C1503      C1504   1.408       .  A
C1503      O1507   1.371       .  S
C1504      H1508   1.083       .  S
O1505      H1510   0.991       .  S
O1507      H1511   0.992       .  S
C1513      C1514   1.410       .  A
C1513      C1518   1.406       .  A
C1513      H1523   1.083       .  S
C1514      C1515   1.414       .  A
C1514      C1519   1.501       .  S
C1515      C1516   1.405       .  A
C1515      O1520   1.372       .  S
C1516      C1517   1.403       .  A
C1516      H1521   1.084       .  S
C1517      C1518   1.406       .  A
C1518      O1522   1.371       .  S
C1519      C1524   1.411       .  A
C1519      C1528   1.408       .  A
O1520      H1536   0.994       .  S
O1522      H1533   0.991       .  S
C1524      C1525   1.405       .  A
C1524      O1529   1.371       .  S
C1525      C1526   1.410       .  A
C1525      H1530   1.083       .  S
C1526      C1527   1.413       .  A
C1527      C1528   1.406       .  A
C1527      O1531   1.371       .  S
C1528      H1532   1.083       .  S
O1529      H1534   0.992       .  S
O1531      H1535   0.993       .  S
C1537      C1538   1.405       .  A
C1537      C1542   1.397       .  A
C1537      H1547   1.082       .  S
C1538      C1539   1.416       .  A
C1538      C1543   1.498       .  S
C1539      C1540   1.408       .  A
C1539      O1544   1.371       .  S
C1540      C1541   1.404       .  A
C1540      H1545   1.083       .  S
C1541      C1542   1.409       .  A
C1542      O1546   1.371       .  S
C1543      C1548   1.413       .  A
C1543      C1552   1.406       .  A
O1544      H1560   0.991       .  S
O1546      H1557   0.992       .  S
C1548      C1549   1.405       .  A
C1548      O1553   1.373       .  S
C1549      C1550   1.405       .  A
C1549      H1554   1.082       .  S
C1550      C1551   1.411       .  A
C1551      C1552   1.404       .  A
C1551      O1555   1.372       .  S
C1552      H1556   1.083       .  S
O1553      H1558   0.993       .  S
O1555      H1559   0.993       .  S
C1561      C1562   1.407       .  A
C1561      C1566   1.402       .  A
C1561      H1571   1.083       .  S
C1562      C1563   1.411       .  A
C1562      C1567   1.491       .  S
C1563      C1564   1.403       .  A
C1563      O1568   1.371       .  S
C1564      C1565   1.401       .  A
C1564      H1569   1.083       .  S
C1565      C1566   1.404       .  A
C1566      O1570   1.371       .  S
C1567      C1572   1.410       .  A
C1567      C1576   1.407       .  A
O1568      H1584   0.992       .  S
O1570      H1581   0.992       .  S
C1572      C1573   1.402       .  A
C1572      O1577   1.372       .  S
C1573      C1574   1.404       .  A
C1573      H1578   1.082       .  S
C1574      C1575   1.408       .  A
C1575      C1576   1.405       .  A
C1575      O1579   1.370       .  S
C1576      H1580   1.083       .  S
O1577      H1582   0.993       .  S
O1579      H1583   0.993       .  S
C1585      C1586   1.404       .  A
C1585      C1590   1.400       .  A
C1585      H1595   1.084       .  S
C1586      C1587   1.408       .  A
C1586      C1591   1.485       .  S
C1587      C1588   1.402       .  A
C1587      O1592   1.372       .  S
C1588      C1589   1.408       .  A
C1588      H1593   1.083       .  S
C1589      C1590   1.411       .  A
C1590      O1594   1.371       .  S
C1591      C1596   1.411       .  A
C1591      C1600   1.403       .  A
O1592      H1608   0.992       .  S
O1594      H1605   0.992       .  S
C1596      C1597   1.401       .  A
C1596      O1601   1.371       .  S
C1597      C1598   1.400       .  A
C1597      H1602   1.084       .  S
C1598      C1599   1.407       .  A
C1599      C1600   1.400       .  A
C1599      O1603   1.372       .  S
C1600      H1604   1.083       .  S
O1601      H1606   0.991       .  S
O1603      H1607   0.991       .  S
C1609      C1610   1.405       .  A
C1609      C1614   1.404       .  A
C1609      H1619   1.083       .  S
C1610      C1611   1.414       .  A
C1610      C1615   1.503       .  S
C1611      C1612   1.407       .  A
C1611      O1616   1.371       .  S
C1612      C1613   1.408       .  A
C1612      H1617   1.083       .  S
C1613      C1614   1.416       .  A
C1614      O1618   1.372       .  S
C1615      C1620   1.413       .  A
C1615      C1624   1.412       .  A
O1616      H1632   0.992       .  S
O1618      H1629   0.991       .  S
C1620      C1621   1.400       .  A
C1620      O1625   1.372       .  S
C1621      C1622   1.403       .  A
C1621      H1626   1.084       .  S
C1622      C1623   1.406       .  A
C1623      C1624   1.408       .  A
C1623      O1627   1.371       .  S
C1624      H1628   1.083       .  S
O1625      H1630   0.992       .  S
O1627      H1631   0.991       .  S
C1633      C1634   1.404       .  A
C1633      C1638   1.397       .  A
C1633      H1643   1.083       .  S
C1634      C1635   1.409       .  A
C1634      C1639   1.483       .  S
C1635      C1636   1.398       .  A
C1635      O1640   1.372       .  S
C1636      C1637   1.405       .  A
C1636      H1641   1.084       .  S
C1637      C1638   1.410       .  A
C1638      O1642   1.372       .  S
C1639      C1644   1.409       .  A
C1639      C1648   1.404       .  A
O1640      H1656   0.990       .  S
O1642      H1653   0.992       .  S
C1644      C1645   1.396       .  A
C1644      O1649   1.372       .  S
C1645      C1646   1.405       .  A
C1645      H1650   1.084       .  S
C1646      C1647   1.411       .  A
C1647      C1648   1.399       .  A
C1647      O1651   1.372       .  S
C1648      H1652   1.083       .  S
O1649      H1654   0.992       .  S
O1651      H1655   0.991       .  S
C1657      C1658   1.404       .  A
C1657      C1662   1.401       .  A
C1657      H1667   1.083       .  S
C1658      C1659   1.411       .  A
C1658      C1663   1.491       .  S
C1659      C1660   1.402       .  A
C1659      O1664   1.372       .  S
C1660      C1661   1.406       .  A
C1660      H1665   1.083       .  S
C1661      C1662   1.413       .  A
C1662      O1666   1.372       .  S
C1663      C1668   1.410       .  A
C1663      C1672   1.405       .  A
O1664      H1680   0.992       .  S
O1666      H1677   0.992       .  S
C1668      C1669   1.403       .  A
C1668      O1673   1.372       .  S
C1669      C1670   1.405       .  A
C1669      H1674   1.084       .  S
C1670      C1671   1.411       .  A
C1671      C1672   1.401       .  A
C1671      O1675   1.371       .  S
C1672      H1676   1.083       .  S
O1673      H1678   0.992       .  S
O1675      H1679   0.993       .  S
C1681      C1682   1.403       .  A
C1681      C1686   1.401       .  A
C1681      H1691   1.084       .  S
C1682      C1683   1.409       .  A
C1682      C1687   1.488       .  S
C1683      C1684   1.401       .  A
C1683      O1688   1.372       .  S
C1684      C1685   1.406       .  A
C1684      H1689   1.083       .  S
C1685      C1686   1.414       .  A
C1686      O1690   1.372       .  S
C1687      C1692   1.408       .  A
C1687      C1696   1.408       .  A
O1688      H1704   0.991       .  S
O1690      H1701   0.992       .  S
C1692      C1693   1.397       .  A
C1692      O1697   1.372       .  S
C1693      C1694   1.403       .  A
C1693      H1698   1.084       .  S
C1694      C1695   1.407       .  A
C1695      C1696   1.405       .  A
C1695      O1699   1.371       .  S
C1696      H1700   1.083       .  S
O1697      H1702   0.993       .  S
O1699      H1703   0.992       .  S
C1705      C1706   1.405       .  A
C1705      C1710   1.401       .  A
C1705      H1715   1.084       .  S
C1706      C1707   1.408       .  A
C1706      C1711   1.486       .  S
C1707      C1708   1.400       .  A
C1707      O1712   1.372       .  S
C1708      C1709   1.407       .  A
C1708      H1713   1.083       .  S
C1709      C1710   1.411       .  A
C1710      O1714   1.372       .  S
C1711      C1716   1.407       .  A
C1711      C1720   1.406       .  A
O1712      H1728   0.992       .  S
O1714      H1725   0.993       .  S
C1716      C1717   1.397       .  A
C1716      O1721   1.372       .  S
C1717      C1718   1.405       .  A
C1717      H1722   1.083       .  S
C1718      C1719   1.413       .  A
C1719      C1720   1.404       .  A
C1719      O1723   1.372       .  S
C1720      H1724   1.084       .  S
O1721      H1726   0.992       .  S
O1723      H1727   0.992       .  S
C1729      C1730   1.402       .  A
C1729      C1734   1.402       .  A
C1729      H1739   1.084       .  S
C1730      C1731   1.407       .  A
C1730      C1735   1.483       .  S
C1731      C1732   1.401       .  A
C1731      O1736   1.372       .  S
C1732      C1733   1.407       .  A
C1732      H1737   1.083       .  S
C1733      C1734   1.412       .  A
C1734      O1738   1.372       .  S
C1735      C1740   1.409       .  A
C1735      C1744   1.403       .  A
O1736      H1752   0.994       .  S
O1738      H1749   0.984       .  S
C1740      C1741   1.399       .  A
C1740      O1745   1.371       .  S
C1741      C1742   1.403       .  A
C1741      H1746   1.084       .  S
C1742      C1743   1.412       .  A
C1743      C1744   1.402       .  A
C1743      O1747   1.372       .  S
C1744      H1748   1.084       .  S
O1745      H1750   0.993       .  S
O1747      H1751   0.992       .  S
C1753      C1754   1.405       .  A
C1753      C1758   1.400       .  A
C1753      H1763   1.083       .  S
C1754      C1755   1.416       .  A
C1754      C1759   1.498       .  S
C1755      C1756   1.404       .  A
C1755      O1760   1.372       .  S
C1756      C1757   1.403       .  A
C1756      H1761   1.083       .  S
C1757      C1758   1.412       .  A
C1758      O1762   1.372       .  S
C1759      C1764   1.417       .  A
C1759      C1768   1.407       .  A
O1760      H1776   0.990       .  S
O1762      H1773   0.990       .  S
C1764      C1765   1.403       .  A
C1764      O1769   1.371       .  S
C1765      C1766   1.400       .  A
C1765      H1770   1.084       .  S
C1766      C1767   1.407       .  A
C1767      C1768   1.400       .  A
C1767      O1771   1.372       .  S
C1768      H1772   1.083       .  S
O1769      H1774   0.991       .  S
O1771      H1775   0.991       .  S
C1777      C1778   1.405       .  A
C1777      C1782   1.403       .  A
C1777      H1787   1.083       .  S
C1778      C1779   1.417       .  A
C1778      C1783   1.503       .  S
C1779      C1780   1.409       .  A
C1779      O1784   1.371       .  S
C1780      C1781   1.403       .  A
C1780      H1785   1.084       .  S
C1781      C1782   1.409       .  A
C1782      O1786   1.373       .  S
C1783      C1788   1.413       .  A
C1783      C1792   1.407       .  A
O1784      H1800   0.990       .  S
O1786      H1797   0.991       .  S
C1788      C1789   1.407       .  A
C1788      O1793   1.372       .  S
C1789      C1790   1.409       .  A
C1789      H1794   1.083       .  S
C1790      C1791   1.412       .  A
C1791      C1792   1.406       .  A
C1791      O1795   1.371       .  S
C1792      H1796   1.083       .  S
O1793      H1798   0.992       .  S
O1795      H1799   0.992       .  S
C1801      C1802   1.403       .  A
C1801      C1806   1.399       .  A
C1801      H1811   1.083       .  S
C1802      C1803   1.414       .  A
C1802      C1807   1.495       .  S
C1803      C1804   1.407       .  A
C1803      O1808   1.371       .  S
C1804      C1805   1.403       .  A
C1804      H1809   1.083       .  S
C1805      C1806   1.410       .  A
C1806      O1810   1.374       .  S
C1807      C1812   1.410       .  A
C1807      C1816   1.406       .  A
O1808      H1824   0.992       .  S
O1810      H1821   0.990       .  S
C1812      C1813   1.401       .  A
C1812      O1817   1.372       .  S
C1813      C1814   1.408       .  A
C1813      H1818   1.083       .  S
C1814      C1815   1.413       .  A
C1815      C1816   1.404       .  A
C1815      O1819   1.371       .  S
C1816      H1820   1.083       .  S
O1817      H1822   0.992       .  S
O1819      H1823   0.991       .  S
C1825      C1826   1.402       .  A
C1825      C1830   1.398       .  A
C1825      H1835   1.083       .  S
C1826      C1827   1.411       .  A
C1826      C1831   1.486       .  S
C1827      C1828   1.405       .  A
C1827      O1832   1.371       .  S
C1828      C1829   1.404       .  A
C1828      H1833   1.083       .  S
C1829      C1830   1.410       .  A
C1830      O1834   1.371       .  S
C1831      C1836   1.410       .  A
C1831      C1840   1.404       .  A
O1832      H1848   0.992       .  S
O1834      H1845   0.991       .  S
C1836      C1837   1.404       .  A
C1836      O1841   1.372       .  S
C1837      C1838   1.402       .  A
C1837      H1842   1.083       .  S
C1838      C1839   1.408       .  A
C1839      C1840   1.400       .  A
C1839      O1843   1.371       .  S
C1840      H1844   1.084       .  S
O1841      H1846   0.992       .  S
O1843      H1847   0.990       .  S
C1849      C1850   1.408       .  A
C1849      C1854   1.408       .  A
C1849      H1859   1.083       .  S
C1850      C1851   1.412       .  A
C1850      C1855   1.498       .  S
C1851      C1852   1.401       .  A
C1851      O1856   1.372       .  S
C1852      C1853   1.404       .  A
C1852      H1857   1.084       .  S
C1853      C1854   1.411       .  A
C1854      O1858   1.372       .  S
C1855      C1860   1.411       .  A
C1855      C1864   1.410       .  A
O1856      H1872   0.991       .  S
O1858      H1869   0.992       .  S
C1860      C1861   1.400       .  A
C1860      O1865   1.371       .  S
C1861      C1862   1.403       .  A
C1861      H1866   1.084       .  S
C1862      C1863   1.409       .  A
C1863      C1864   1.406       .  A
C1863      O1867   1.372       .  S
C1864      H1868   1.083       .  S
O1865      H1870   0.992       .  S
O1867      H1871   0.991       .  S
C1873      C1874   1.406       .  A
C1873      C1878   1.401       .  A
C1873      H1883   1.083       .  S
C1874      C1875   1.413       .  A
C1874      C1879   1.494       .  S
C1875      C1876   1.405       .  A
C1875      O1880   1.371       .  S
C1876      C1877   1.404       .  A
C1876      H1881   1.083       .  S
C1877      C1878   1.406       .  A
C1878      O1882   1.372       .  S
C1879      C1884   1.413       .  A
C1879      C1888   1.404       .  A
O1880      H1896   0.990       .  S
O1882      H1893   0.992       .  S
C1884      C1885   1.408       .  A
C1884      O1889   1.372       .  S
C1885      C1886   1.404       .  A
C1885      H1890   1.083       .  S
C1886      C1887   1.409       .  A
C1887      C1888   1.402       .  A
C1887      O1891   1.373       .  S
C1888      H1892   1.083       .  S
O1889      H1894   0.992       .  S
O1891      H1895   0.992       .  S
C1897      C1898   1.401       .  A
C1897      C1902   1.396       .  A
C1897      H1907   1.084       .  S
C1898      C1899   1.407       .  A
C1898      C1903   1.471       .  S
C1899      C1900   1.400       .  A
C1899      O1904   1.372       .  S
C1900      C1901   1.402       .  A
C1900      H1905   1.083       .  S
C1901      C1902   1.405       .  A
C1902      O1906   1.371       .  S
C1903      C1908   1.406       .  A
C1903      C1912   1.401       .  A
O1904      H1920   0.990       .  S
O1906      H1917   0.990       .  S
C1908      C1909   1.397       .  A
C1908      O1913   1.372       .  S
C1909      C1910   1.402       .  A
C1909      H1914   1.083       .  S
C1910      C1911   1.408       .  A
C1911      C1912   1.398       .  A
C1911      O1915   1.371       .  S
C1912      H1916   1.084       .  S
O1913      H1918   0.990       .  S
O1915      H1919   0.993       .  S
C1921      C1922   1.407       .  A
C1921      C1926   1.407       .  A
C1921      H1931   1.084       .  S
C1922      C1923   1.408       .  A
C1922      C1927   1.489       .  S
C1923      C1924   1.400       .  A
C1923      O1928   1.372       .  S
C1924      C1925   1.403       .  A
C1924      H1929   1.084       .  S
C1925      C1926   1.410       .  A
C1926      O1930   1.371       .  S
C1927      C1932   1.410       .  A
C1927      C1936   1.405       .  A
O1928      H1944   0.993       .  S
O1930      H1941   0.992       .  S
C1932      C1933   1.405       .  A
C1932      O1937   1.373       .  S
C1933      C1934   1.402       .  A
C1933      H1938   1.084       .  S
C1934      C1935   1.405       .  A
C1935      C1936   1.403       .  A
C1935      O1939   1.372       .  S
C1936      H1940   1.084       .  S
O1937      H1942   0.992       .  S
O1939      H1943   0.989       .  S
C1945      C1946   1.411       .  A
C1945      C1950   1.411       .  A
C1945      H1955   1.083       .  S
C1946      C1947   1.410       .  A
C1946      C1951   1.503       .  S
C1947      C1948   1.399       .  A
C1947      O1952   1.371       .  S
C1948      C1949   1.406       .  A
C1948      H1953   1.084       .  S
C1949      C1950   1.412       .  A
C1950      O1954   1.371       .  S
C1951      C1956   1.412       .  A
C1951      C1960   1.410       .  A
O1952      H1968   0.994       .  S
O1954      H1965   0.992       .  S
C1956      C1957   1.405       .  A
C1956      O1961   1.371       .  S
C1957      C1958   1.404       .  A
C1957      H1962   1.084       .  S
C1958      C1959   1.409       .  A
C1959      C1960   1.408       .  A
C1959      O1963   1.372       .  S
C1960      H1964   1.083       .  S
O1961      H1966   0.993       .  S
O1963      H1967   0.992       .  S
C1969      C1970   1.404       .  A
C1969      C1974   1.401       .  A
C1969      H1979   1.083       .  S
C1970      C1971   1.411       .  A
C1970      C1975   1.488       .  S
C1971      C1972   1.401       .  A
C1971      O1976   1.372       .  S
C1972      C1973   1.402       .  A
C1972      H1977   1.083       .  S
C1973      C1974   1.408       .  A
C1974      O1978   1.372       .  S
C1975      C1980   1.412       .  A
C1975      C1984   1.406       .  A
O1976      H1992   0.991       .  S
O1978      H1989   0.992       .  S
C1980      C1981   1.400       .  A
C1980      O1985   1.372       .  S
C1981      C1982   1.398       .  A
C1981      H1986   1.083       .  S
C1982      C1983   1.405       .  A
C1983      C1984   1.403       .  A
C1983      O1987   1.371       .  S
C1984      H1988   1.083       .  S
O1985      H1990   0.992       .  S
O1987      H1991   0.991       .  S
C1993      C1994   1.406       .  A
C1993      C1998   1.406       .  A
C1993      H2003   1.083       .  S
C1994      C1995   1.413       .  A
C1994      C1999   1.496       .  S
C1995      C1996   1.405       .  A
C1995      O2000   1.373       .  S
C1996      C1997   1.403       .  A
C1996      H2001   1.084       .  S
C1997      C1998   1.411       .  A
C1998      O2002   1.372       .  S
C1999      C2004   1.411       .  A
C1999      C2008   1.408       .  A
O2000      H2016   0.993       .  S
O2002      H2013   0.993       .  S
C2004      C2005   1.403       .  A
C2004      O2009   1.373       .  S
C2005      C2006   1.402       .  A
C2005      H2010   1.084       .  S
C2006      C2007   1.408       .  A
C2007      C2008   1.408       .  A
C2007      O2011   1.371       .  S
C2008      H2012   1.083       .  S
O2009      H2014   0.992       .  S
O2011      H2015   0.990       .  S
C2017      C2018   1.404       .  A
C2017      C2022   1.400       .  A
C2017      H2027   1.084       .  S
C2018      C2019   1.409       .  A
C2018      C2023   1.486       .  S
C2019      C2020   1.400       .  A
C2019      O2024   1.372       .  S
C2020      C2021   1.405       .  A
C2020      H2025   1.083       .  S
C2021      C2022   1.412       .  A
C2022      O2026   1.372       .  S
C2023      C2028   1.409       .  A
C2023      C2032   1.404       .  A
O2024      H2040   0.991       .  S
O2026      H2037   0.991       .  S
C2028      C2029   1.398       .  A
C2028      O2033   1.372       .  S
C2029      C2030   1.406       .  A
C2029      H2034   1.083       .  S
C2030      C2031   1.412       .  A
C2031      C2032   1.400       .  A
C2031      O2035   1.372       .  S
C2032      H2036   1.083       .  S
O2033      H2038   0.992       .  S
O2035      H2039   0.991       .  S
C2041      C2042   1.402       .  A
C2041      C2046   1.399       .  A
C2041      H2051   1.083       .  S
C2042      C2043   1.410       .  A
C2042      C2047   1.486       .  S
C2043      C2044   1.401       .  A
C2043      O2048   1.372       .  S
C2044      C2045   1.405       .  A
C2044      H2049   1.083       .  S
C2045      C2046   1.413       .  A
C2046      O2050   1.372       .  S
C2047      C2052   1.411       .  A
C2047      C2056   1.402       .  A
O2048      H2064   0.992       .  S
O2050      H2061   0.992       .  S
C2052      C2053   1.402       .  A
C2052      O2057   1.372       .  S
C2053      C2054   1.404       .  A
C2053      H2058   1.083       .  S
C2054      C2055   1.413       .  A
C2055      C2056   1.398       .  A
C2055      O2059   1.372       .  S
C2056      H2060   1.084       .  S
O2057      H2062   0.992       .  S
O2059      H2063   0.993       .  S
C2065      C2066   1.405       .  A
C2065      C2070   1.408       .  A
C2065      H2075   1.083       .  S
C2066      C2067   1.407       .  A
C2066      C2071   1.493       .  S
C2067      C2068   1.404       .  A
C2067      O2072   1.373       .  S
C2068      C2069   1.409       .  A
C2068      H2073   1.083       .  S
C2069      C2070   1.416       .  A
C2070      O2074   1.371       .  S
C2071      C2076   1.412       .  A
C2071      C2080   1.402       .  A
O2072      H2088   0.991       .  S
O2074      H2085   0.992       .  S
C2076      C2077   1.409       .  A
C2076      O2081   1.372       .  S
C2077      C2078   1.405       .  A
C2077      H2082   1.083       .  S
C2078      C2079   1.413       .  A
C2079      C2080   1.402       .  A
C2079      O2083   1.372       .  S
C2080      H2084   1.084       .  S
O2081      H2086   0.992       .  S
O2083      H2087   0.991       .  S
C2089      C2090   1.405       .  A
C2089      C2094   1.399       .  A
C2089      H2099   1.083       .  S
C2090      C2091   1.410       .  A
C2090      C2095   1.487       .  S
C2091      C2092   1.398       .  A
C2091      O2096   1.372       .  S
C2092      C2093   1.405       .  A
C2092      H2097   1.083       .  S
C2093      C2094   1.411       .  A
C2094      O2098   1.372       .  S
C2095      C2100   1.409       .  A
C2095      C2104   1.406       .  A
O2096      H2112   0.991       .  S
O2098      H2109   0.992       .  S
C2100      C2101   1.397       .  A
C2100      O2105   1.372       .  S
C2101      C2102   1.405       .  A
C2101      H2106   1.084       .  S
C2102      C2103   1.410       .  A
C2103      C2104   1.401       .  A
C2103      O2107   1.371       .  S
C2104      H2108   1.083       .  S
O2105      H2110   0.992       .  S
O2107      H2111   0.992       .  S
C2113      C2114   1.406       .  A
C2113      C2118   1.404       .  A
C2113      H2123   1.084       .  S
C2114      C2115   1.408       .  A
C2114      C2119   1.487       .  S
C2115      C2116   1.399       .  A
C2115      O2120   1.371       .  S
C2116      C2117   1.404       .  A
C2116      H2121   1.084       .  S
C2117      C2118   1.412       .  A
C2118      O2122   1.372       .  S
C2119      C2124   1.407       .  A
C2119      C2128   1.405       .  A
O2120      H2136   0.991       .  S
O2122      H2133   0.994       .  S
C2124      C2125   1.401       .  A
C2124      O2129   1.372       .  S
C2125      C2126   1.409       .  A
C2125      H2130   1.083       .  S
C2126      C2127   1.411       .  A
C2127      C2128   1.402       .  A
C2127      O2131   1.371       .  S
C2128      H2132   1.083       .  S
O2129      H2134   0.993       .  S
O2131      H2135   0.991       .  S
C2137      C2138   1.406       .  A
C2137      C2142   1.408       .  A
C2137      H2147   1.083       .  S
C2138      C2139   1.409       .  A
C2138      C2143   1.490       .  S
C2139      C2140   1.401       .  A
C2139      O2144   1.373       .  S
C2140      C2141   1.403       .  A
C2140      H2145   1.084       .  S
C2141      C2142   1.408       .  A
C2142      O2146   1.371       .  S
C2143      C2148   1.412       .  A
C2143      C2152   1.403       .  A
O2144      H2160   0.992       .  S
O2146      H2157   0.991       .  S
C2148      C2149   1.403       .  A
C2148      O2153   1.371       .  S
C2149      C2150   1.401       .  A
C2149      H2154   1.084       .  S
C2150      C2151   1.411       .  A
C2151      C2152   1.404       .  A
C2151      O2155   1.372       .  S
C2152      H2156   1.083       .  S
O2153      H2158   0.992       .  S
O2155      H2159   0.993       .  S
C2161      C2162   1.403       .  A
C2161      C2166   1.402       .  A
C2161      H2171   1.084       .  S
C2162      C2163   1.413       .  A
C2162      C2167   1.496       .  S
C2163      C2164   1.409       .  A
C2163      O2168   1.373       .  S
C2164      C2165   1.405       .  A
C2164      H2169   1.083       .  S
C2165      C2166   1.412       .  A
C2166      O2170   1.371       .  S
C2167      C2172   1.410       .  A
C2167      C2176   1.406       .  A
O2168      H2184   0.993       .  S
O2170      H2181   0.991       .  S
C2172      C2173   1.402       .  A
C2172      O2177   1.372       .  S
C2173      C2174   1.409       .  A
C2173      H2178   1.083       .  S
C2174      C2175   1.414       .  A
C2175      C2176   1.407       .  A
C2175      O2179   1.371       .  S
C2176      H2180   1.083       .  S
O2177      H2182   0.992       .  S
O2179      H2183   0.992       .  S
C2185      C2186   1.407       .  A
C2185      C2190   1.400       .  A
C2185      H2195   1.083       .  S
C2186      C2187   1.414       .  A
C2186      C2191   1.491       .  S
C2187      C2188   1.401       .  A
C2187      O2192   1.372       .  S
C2188      C2189   1.401       .  A
C2188      H2193   1.083       .  S
C2189      C2190   1.405       .  A
C2190      O2194   1.371       .  S
C2191      C2196   1.411       .  A
C2191      C2200   1.407       .  A
O2192      H2208   0.992       .  S
O2194      H2205   0.992       .  S
C2196      C2197   1.400       .  A
C2196      O2201   1.372       .  S
C2197      C2198   1.402       .  A
C2197      H2202   1.083       .  S
C2198      C2199   1.408       .  A
C2199      C2200   1.403       .  A
C2199      O2203   1.371       .  S
C2200      H2204   1.083       .  S
O2201      H2206   0.993       .  S
O2203      H2207   0.992       .  S
C2209      C2210   1.405       .  A
C2209      C2214   1.403       .  A
C2209      H2219   1.084       .  S
C2210      C2211   1.412       .  A
C2210      C2215   1.494       .  S
C2211      C2212   1.407       .  A
C2211      O2216   1.372       .  S
C2212      C2213   1.405       .  A
C2212      H2217   1.083       .  S
C2213      C2214   1.408       .  A
C2214      O2218   1.372       .  S
C2215      C2220   1.412       .  A
C2215      C2224   1.403       .  A
O2216      H2232   0.993       .  S
O2218      H2229   0.991       .  S
C2220      C2221   1.412       .  A
C2220      O2225   1.372       .  S
C2221      C2222   1.407       .  A
C2221      H2226   1.083       .  S
C2222      C2223   1.412       .  A
C2223      C2224   1.398       .  A
C2223      O2227   1.372       .  S
C2224      H2228   1.084       .  S
O2225      H2230   0.991       .  S
O2227      H2231   0.992       .  S
C2233      C2234   1.406       .  A
C2233      C2238   1.401       .  A
C2233      H2243   1.084       .  S
C2234      C2235   1.413       .  A
C2234      C2239   1.498       .  S
C2235      C2236   1.410       .  A
C2235      O2240   1.372       .  S
C2236      C2237   1.404       .  A
C2236      H2241   1.082       .  S
C2237      C2238   1.408       .  A
C2238      O2242   1.372       .  S
C2239      C2244   1.414       .  A
C2239      C2248   1.407       .  A
O2240      H2256   0.993       .  S
O2242      H2253   0.991       .  S
C2244      C2245   1.408       .  A
C2244      O2249   1.372       .  S
C2245      C2246   1.401       .  A
C2245      H2250   1.084       .  S
C2246      C2247   1.406       .  A
C2247      C2248   1.403       .  A
C2247      O2251   1.372       .  S
C2248      H2252   1.084       .  S
O2249      H2254   0.994       .  S
O2251      H2255   0.992       .  S
C2257      C2258   1.403       .  A
C2257      C2262   1.398       .  A
C2257      H2267   1.084   1_545  S
C2258      C2259   1.406       .  A
C2258      C2263   1.473       .  S
C2259      C2260   1.396       .  A
C2259      O2264   1.372       .  S
C2260      C2261   1.401       .  A
C2260      H2265   1.083       .  S
C2261      C2262   1.406       .  A
C2262      O2266   1.371   1_545  S
C2263      C2268   1.406       .  A
C2263      C2272   1.403       .  A
O2264      H2280   0.991       .  S
O2266      H2277   0.992   1_565  S
C2268      C2269   1.396       .  A
C2268      O2273   1.372       .  S
C2269      C2270   1.399       .  A
C2269      H2274   1.082       .  S
C2270      C2271   1.404       .  A
C2271      C2272   1.398       .  A
C2271      O2275   1.371       .  S
C2272      H2276   1.084       .  S
O2273      H2278   0.992       .  S
O2275      H2279   0.993       .  S
C2281      C2282   1.412       .  A
C2281      C2286   1.412       .  A
C2281      H2291   1.083       .  S
C2282      C2283   1.411       .  A
C2282      C2287   1.506       .  S
C2283      C2284   1.404       .  A
C2283      O2288   1.372       .  S
C2284      C2285   1.408       .  A
C2284      H2289   1.084       .  S
C2285      C2286   1.409       .  A
C2286      O2290   1.370       .  S
C2287      C2292   1.413       .  A
C2287      C2296   1.406       .  A
O2288      H2304   0.993       .  S
O2290      H2301   0.992       .  S
C2292      C2293   1.408       .  A
C2292      O2297   1.371       .  S
C2293      C2294   1.408       .  A
C2293      H2298   1.083       .  S
C2294      C2295   1.418       .  A
C2295      C2296   1.407       .  A
C2295      O2299   1.372       .  S
C2296      H2300   1.083       .  S
O2297      H2302   0.992       .  S
O2299      H2303   0.993       .  S
C2305      C2306   1.408       .  A
C2305      C2310   1.410       .  A
C2305      H2315   1.083       .  S
C2306      C2307   1.412       .  A
C2306      C2311   1.501       .  S
C2307      C2308   1.403       .  A
C2307      O2312   1.372       .  S
C2308      C2309   1.405       .  A
C2308      H2313   1.084       .  S
C2309      C2310   1.411       .  A
C2310      O2314   1.371       .  S
C2311      C2316   1.411       .  A
C2311      C2320   1.409       .  A
O2312      H2328   0.992       .  S
O2314      H2325   0.991       .  S
C2316      C2317   1.403       .  A
C2316      O2321   1.372       .  S
C2317      C2318   1.407       .  A
C2317      H2322   1.084       .  S
C2318      C2319   1.411       .  A
C2319      C2320   1.409       .  A
C2319      O2323   1.370       .  S
C2320      H2324   1.083       .  S
O2321      H2326   0.992       .  S
O2323      H2327   0.991       .  S
C2329      C2330   1.401       .  A
C2329      C2334   1.393       .  A
C2329      H2339   1.083       .  S
C2330      C2331   1.413       .  A
C2330      C2335   1.483       .  S
C2331      C2332   1.404       .  A
C2331      O2336   1.371       .  S
C2332      C2333   1.402       .  A
C2332      H2337   1.084       .  S
C2333      C2334   1.406       .  A
C2334      O2338   1.373       .  S
C2335      C2340   1.409       .  A
C2335      C2344   1.404       .  A
O2336      H2352   0.990       .  S
O2338      H2349   0.992       .  S
C2340      C2341   1.395       .  A
C2340      O2345   1.372       .  S
C2341      C2342   1.404       .  A
C2341      H2346   1.083       .  S
C2342      C2343   1.413       .  A
C2343      C2344   1.402       .  A
C2343      O2347   1.371       .  S
C2344      H2348   1.084       .  S
O2345      H2350   0.991       .  S
O2347      H2351   0.994       .  S
C2353      C2354   1.408       .  A
C2353      C2358   1.404       .  A
C2353      H2363   1.083       .  S
C2354      C2355   1.410       .  A
C2354      C2359   1.489       .  S
C2355      C2356   1.396       .  A
C2355      O2360   1.371       .  S
C2356      C2357   1.401       .  A
C2356      H2361   1.084       .  S
C2357      C2358   1.407       .  A
C2358      O2362   1.372       .  S
C2359      C2364   1.412       .  A
C2359      C2368   1.404       .  A
O2360      H2376   0.993       .  S
O2362      H2373   0.993       .  S
C2364      C2365   1.401       .  A
C2364      O2369   1.372       .  S
C2365      C2366   1.405       .  A
C2365      H2370   1.084       .  S
C2366      C2367   1.410       .  A
C2367      C2368   1.400       .  A
C2367      O2371   1.370       .  S
C2368      H2372   1.083       .  S
O2369      H2374   0.994       .  S
O2371      H2375   0.992       .  S
C2377      C2378   1.406       .  A
C2377      C2382   1.403       .  A
C2377      H2387   1.083       .  S
C2378      C2379   1.410       .  A
C2378      C2383   1.491       .  S
C2379      C2380   1.402       .  A
C2379      O2384   1.372       .  S
C2380      C2381   1.405       .  A
C2380      H2385   1.083       .  S
C2381      C2382   1.409       .  A
C2382      O2386   1.370       .  S
C2383      C2388   1.409       .  A
C2383      C2392   1.408       .  A
O2384      H2400   0.992       .  S
O2386      H2397   0.992       .  S
C2388      C2389   1.400       .  A
C2388      O2393   1.372       .  S
C2389      C2390   1.402       .  A
C2389      H2394   1.083       .  S
C2390      C2391   1.407       .  A
C2391      C2392   1.407       .  A
C2391      O2395   1.371       .  S
C2392      H2396   1.083       .  S
O2393      H2398   0.992       .  S
O2395      H2399   0.992       .  S
C2401      C2402   1.408       .  A
C2401      C2406   1.406       .  A
C2401      H2411   1.083       .  S
C2402      C2403   1.408       .  A
C2402      C2407   1.491       .  S
C2403      C2404   1.398       .  A
C2403      O2408   1.372       .  S
C2404      C2405   1.405       .  A
C2404      H2409   1.082       .  S
C2405      C2406   1.412       .  A
C2406      O2410   1.371       .  S
C2407      C2412   1.409       .  A
C2407      C2416   1.407       .  A
O2408      H2424   0.994       .  S
O2410      H2421   0.992       .  S
C2412      C2413   1.403       .  A
C2412      O2417   1.372       .  S
C2413      C2414   1.405       .  A
C2413      H2418   1.083       .  S
C2414      C2415   1.407       .  A
C2415      C2416   1.403       .  A
C2415      O2419   1.370       .  S
C2416      H2420   1.083       .  S
O2417      H2422   0.991       .  S
O2419      H2423   0.993       .  S
C2425      C2426   1.406       .  A
C2425      C2430   1.404       .  A
C2425      H2435   1.083       .  S
C2426      C2427   1.409       .  A
C2426      C2431   1.487       .  S
C2427      C2428   1.401       .  A
C2427      O2432   1.372       .  S
C2428      C2429   1.402       .  A
C2428      H2433   1.084       .  S
C2429      C2430   1.407       .  A
C2430      O2434   1.372       .  S
C2431      C2436   1.409       .  A
C2431      C2440   1.404       .  A
O2432      H2448   0.993       .  S
O2434      H2445   0.992       .  S
C2436      C2437   1.400       .  A
C2436      O2441   1.372       .  S
C2437      C2438   1.403       .  A
C2437      H2442   1.084       .  S
C2438      C2439   1.410       .  A
C2439      C2440   1.407       .  A
C2439      O2443   1.372       .  S
C2440      H2444   1.083       .  S
O2441      H2446   0.992       .  S
O2443      H2447   0.991       .  S
C2449      C2450   1.404       .  A
C2449      C2454   1.401       .  A
C2449      H2459   1.084       .  S
C2450      C2451   1.409       .  A
C2450      C2455   1.486       .  S
C2451      C2452   1.405       .  A
C2451      O2456   1.371       .  S
C2452      C2453   1.404       .  A
C2452      H2457   1.084       .  S
C2453      C2454   1.408       .  A
C2454      O2458   1.371       .  S
C2455      C2460   1.410       .  A
C2455      C2464   1.403       .  A
O2456      H2472   0.992       .  S
O2458      H2469   0.992       .  S
C2460      C2461   1.405       .  A
C2460      O2465   1.371       .  S
C2461      C2462   1.403       .  A
C2461      H2466   1.084       .  S
C2462      C2463   1.407       .  A
C2463      C2464   1.401       .  A
C2463      O2467   1.372       .  S
C2464      H2468   1.084       .  S
O2465      H2470   0.990       .  S
O2467      H2471   0.990       .  S
C2473      C2474   1.405       .  A
C2473      C2478   1.398       .  A
C2473      H2483   1.083       .  S
C2474      C2475   1.411   1_556  A
C2474      C2479   1.488       .  S
C2475      C2476   1.401       .  A
C2475      O2480   1.371       .  S
C2476      C2477   1.403   1_554  A
C2476      H2481   1.083       .  S
C2477      C2478   1.408       .  A
C2478      O2482   1.371       .  S
C2479      C2484   1.411   1_556  A
C2479      C2488   1.407       .  A
O2480      H2496   0.992       .  S
O2482      H2493   0.991       .  S
C2484      C2485   1.397       .  A
C2484      O2489   1.372       .  S
C2485      C2486   1.402   1_554  A
C2485      H2490   1.083       .  S
C2486      C2487   1.409       .  A
C2487      C2488   1.402       .  A
C2487      O2491   1.371       .  S
C2488      H2492   1.083       .  S
O2489      H2494   0.990       .  S
O2491      H2495   0.992       .  S
C2497      C2498   1.408       .  A
C2497      C2502   1.407       .  A
C2497      H2507   1.083       .  S
C2498      C2499   1.408       .  A
C2498      C2503   1.492       .  S
C2499      C2500   1.401       .  A
C2499      O2504   1.372       .  S
C2500      C2501   1.404       .  A
C2500      H2505   1.084       .  S
C2501      C2502   1.409       .  A
C2502      O2506   1.371       .  S
C2503      C2508   1.409       .  A
C2503      C2512   1.403       .  A
O2504      H2520   0.992       .  S
O2506      H2517   0.991       .  S
C2508      C2509   1.405       .  A
C2508      O2513   1.372       .  S
C2509      C2510   1.406       .  A
C2509      H2514   1.083       .  S
C2510      C2511   1.418       .  A
C2511      C2512   1.406       .  A
C2511      O2515   1.372       .  S
C2512      H2516   1.084       .  S
O2513      H2518   0.991       .  S
O2515      H2519   0.992       .  S
C2521      C2522   1.403       .  A
C2521      C2526   1.399       .  A
C2521      H2531   1.084       .  S
C2522      C2523   1.410       .  A
C2522      C2527   1.490       .  S
C2523      C2524   1.408       .  A
C2523      O2528   1.371       .  S
C2524      C2525   1.406       .  A
C2524      H2529   1.083       .  S
C2525      C2526   1.409       .  A
C2526      O2530   1.373       .  S
C2527      C2532   1.411       .  A
C2527      C2536   1.403       .  A
O2528      H2544   0.992       .  S
O2530      H2541   0.993       .  S
C2532      C2533   1.410       .  A
C2532      O2537   1.372       .  S
C2533      C2534   1.407       .  A
C2533      H2538   1.083       .  S
C2534      C2535   1.409       .  A
C2535      C2536   1.396       .  A
C2535      O2539   1.372       .  S
C2536      H2540   1.084       .  S
O2537      H2542   0.992       .  S
O2539      H2543   0.992       .  S
C2545      C2546   1.410       .  A
C2545      C2550   1.410       .  A
C2545      H2555   1.083       .  S
C2546      C2547   1.409       .  A
C2546      C2551   1.498       .  S
C2547      C2548   1.401       .  A
C2547      O2552   1.372       .  S
C2548      C2549   1.407       .  A
C2548      H2553   1.084       .  S
C2549      C2550   1.409       .  A
C2550      O2554   1.371       .  S
C2551      C2556   1.410       .  A
C2551      C2560   1.405       .  A
O2552      H2568   0.992       .  S
O2554      H2565   0.991       .  S
C2556      C2557   1.407       .  A
C2556      O2561   1.372       .  S
C2557      C2558   1.408       .  A
C2557      H2562   1.083       .  S
C2558      C2559   1.416       .  A
C2559      C2560   1.406       .  A
C2559      O2563   1.371       .  S
C2560      H2564   1.083       .  S
O2561      H2566   0.990       .  S
O2563      H2567   0.993       .  S
C2569      C2570   1.406       .  A
C2569      C2574   1.410       .  A
C2569      H2579   1.083       .  S
C2570      C2571   1.406       .  A
C2570      C2575   1.486       .  S
C2571      C2572   1.398       .  A
C2571      O2576   1.372       .  S
C2572      C2573   1.404       .  A
C2572      H2577   1.084       .  S
C2573      C2574   1.412       .  A
C2574      O2578   1.371       .  S
C2575      C2580   1.409       .  A
C2575      C2584   1.405       .  A
O2576      H2592   0.992       .  S
O2578      H2589   0.991       .  S
C2580      C2581   1.399       .  A
C2580      O2585   1.372       .  S
C2581      C2582   1.402       .  A
C2581      H2586   1.084       .  S
C2582      C2583   1.409       .  A
C2583      C2584   1.409       .  A
C2583      O2587   1.371       .  S
C2584      H2588   1.083       .  S
O2585      H2590   0.992       .  S
O2587      H2591   0.991       .  S
C2593      C2594   1.406       .  A
C2593      C2598   1.399       .  A
C2593      H2603   1.083       .  S
C2594      C2595   1.413       .  A
C2594      C2599   1.495       .  S
C2595      C2596   1.403       .  A
C2595      O2600   1.372       .  S
C2596      C2597   1.406       .  A
C2596      H2601   1.083       .  S
C2597      C2598   1.408       .  A
C2598      O2602   1.370       .  S
C2599      C2604   1.414       .  A
C2599      C2608   1.407       .  A
O2600      H2616   0.992       .  S
O2602      H2613   0.993       .  S
C2604      C2605   1.399       .  A
C2604      O2609   1.372       .  S
C2605      C2606   1.401       .  A
C2605      H2610   1.083       .  S
C2606      C2607   1.409       .  A
C2607      C2608   1.401       .  A
C2607      O2611   1.371       .  S
C2608      H2612   1.083       .  S
O2609      H2614   0.992       .  S
O2611      H2615   0.992       .  S
C2617      C2618   1.407       .  A
C2617      C2622   1.404       .  A
C2617      H2627   1.083       .  S
C2618      C2619   1.408       .  A
C2618      C2623   1.489       .  S
C2619      C2620   1.402       .  A
C2619      O2624   1.372       .  S
C2620      C2621   1.406       .  A
C2620      H2625   1.084       .  S
C2621      C2622   1.407       .  A
C2622      O2626   1.371       .  S
C2623      C2628   1.409       .  A
C2623      C2632   1.404       .  A
O2624      H2640   0.991       .  S
O2626      H2637   0.992       .  S
C2628      C2629   1.400       .  A
C2628      O2633   1.372       .  S
C2629      C2630   1.406       .  A
C2629      H2634   1.083       .  S
C2630      C2631   1.416       .  A
C2631      C2632   1.405       .  A
C2631      O2635   1.371       .  S
C2632      H2636   1.083       .  S
O2633      H2638   0.992       .  S
O2635      H2639   0.992       .  S
C2641      C2642   1.408       .  A
C2641      C2646   1.405       .  A
C2641      H2651   1.083       .  S
C2642      C2643   1.408       .  A
C2642      C2647   1.491       .  S
C2643      C2644   1.399       .  A
C2643      O2648   1.372       .  S
C2644      C2645   1.407       .  A
C2644      H2649   1.084       .  S
C2645      C2646   1.408       .  A
C2646      O2650   1.371       .  S
C2647      C2652   1.409       .  A
C2647      C2656   1.405       .  A
O2648      H2664   0.993       .  S
O2650      H2661   0.991       .  S
C2652      C2653   1.401       .  A
C2652      O2657   1.372       .  S
C2653      C2654   1.407       .  A
C2653      H2658   1.083       .  S
C2654      C2655   1.415       .  A
C2655      C2656   1.404       .  A
C2655      O2659   1.371       .  S
C2656      H2660   1.083       .  S
O2657      H2662   0.993       .  S
O2659      H2663   0.991       .  S
C2665      C2666   1.409       .  A
C2665      C2670   1.405       .  A
C2665      H2675   1.082       .  S
C2666      C2667   1.413       .  A
C2666      C2671   1.499       .  S
C2667      C2668   1.399       .  A
C2667      O2672   1.372       .  S
C2668      C2669   1.405       .  A
C2668      H2673   1.082       .  S
C2669      C2670   1.410       .  A
C2670      O2674   1.370       .  S
C2671      C2676   1.412       .  A
C2671      C2680   1.409       .  A
O2672      H2688   0.993       .  S
O2674      H2685   0.992       .  S
C2676      C2677   1.402       .  A
C2676      O2681   1.372       .  S
C2677      C2678   1.404       .  A
C2677      H2682   1.082       .  S
C2678      C2679   1.408       .  A
C2679      C2680   1.403       .  A
C2679      O2683   1.371       .  S
C2680      H2684   1.083       .  S
O2681      H2686   0.991       .  S
O2683      H2687   0.993       .  S
C2689      C2690   1.402       .  A
C2689      C2694   1.396       .  A
C2689      H2699   1.084       .  S
C2690      C2691   1.410       .  A
C2690      C2695   1.490       .  S
C2691      C2692   1.410       .  A
C2691      O2696   1.371       .  S
C2692      C2693   1.407       .  A
C2692      H2697   1.083       .  S
C2693      C2694   1.412       .  A
C2694      O2698   1.372       .  S
C2695      C2700   1.411       .  A
C2695      C2704   1.405       .  A
O2696      H2712   0.992       .  S
O2698      H2709   0.992       .  S
C2700      C2701   1.408       .  A
C2700      O2705   1.371       .  S
C2701      C2702   1.403       .  A
C2701      H2706   1.083       .  S
C2702      C2703   1.407       .  A
C2703      C2704   1.399       .  A
C2703      O2707   1.373       .  S
C2704      H2708   1.084       .  S
O2705      H2710   0.992       .  S
O2707      H2711   0.990       .  S
C2713      C2714   1.403       .  A
C2713      C2718   1.407       .  A
C2713      H2723   1.083       .  S
C2714      C2715   1.405       .  A
C2714      C2719   1.479       .  S
C2715      C2716   1.398       .  A
C2715      O2720   1.372       .  S
C2716      C2717   1.404       .  A
C2716      H2721   1.084       .  S
C2717      C2718   1.411       .  A
C2718      O2722   1.372       .  S
C2719      C2724   1.406       .  A
C2719      C2728   1.404       .  A
O2720      H2736   0.992       .  S
O2722      H2733   0.992       .  S
C2724      C2725   1.400       .  A
C2724      O2729   1.372       .  S
C2725      C2726   1.403       .  A
C2725      H2730   1.084       .  S
C2726      C2727   1.407       .  A
C2727      C2728   1.404       .  A
C2727      O2731   1.371       .  S
C2728      H2732   1.083       .  S
O2729      H2734   0.993       .  S
O2731      H2735   0.993       .  S
C2737      C2738   1.406       .  A
C2737      C2742   1.399       .  A
C2737      H2747   1.083       .  S
C2738      C2739   1.410       .  A
C2738      C2743   1.486       .  S
C2739      C2740   1.397       .  A
C2739      O2744   1.372       .  S
C2740      C2741   1.403       .  A
C2740      H2745   1.083       .  S
C2741      C2742   1.406       .  A
C2742      O2746   1.371       .  S
C2743      C2748   1.409       .  A
C2743      C2752   1.408       .  A
O2744      H2760   0.992       .  S
O2746      H2757   0.991       .  S
C2748      C2749   1.398       .  A
C2748      O2753   1.373       .  S
C2749      C2750   1.403       .  A
C2749      H2754   1.083       .  S
C2750      C2751   1.404       .  A
C2751      C2752   1.400       .  A
C2751      O2755   1.370       .  S
C2752      H2756   1.083       .  S
O2753      H2758   0.992       .  S
O2755      H2759   0.992       .  S
C2761      C2762   1.403       .  A
C2761      C2766   1.400       .  A
C2761      H2771   1.083       .  S
C2762      C2763   1.410       .  A
C2762      C2767   1.485       .  S
C2763      C2764   1.404       .  A
C2763      O2768   1.371       .  S
C2764      C2765   1.403       .  A
C2764      H2769   1.084       .  S
C2765      C2766   1.406       .  A
C2766      O2770   1.372       .  S
C2767      C2772   1.408       .  A
C2767      C2776   1.404       .  A
O2768      H2784   0.990       .  S
O2770      H2781   0.989       .  S
C2772      C2773   1.404       .  A
C2772      O2777   1.372       .  S
C2773      C2774   1.406       .  A
C2773      H2778   1.083       .  S
C2774      C2775   1.408       .  A
C2775      C2776   1.399       .  A
C2775      O2779   1.371       .  S
C2776      H2780   1.084       .  S
O2777      H2782   0.991       .  S
O2779      H2783   0.992       .  S
C2785      C2786   1.401       .  A
C2785      C2790   1.397       .  A
C2785      H2795   1.084       .  S
C2786      C2787   1.408       .  A
C2786      C2791   1.477       .  S
C2787      C2788   1.403       .  A
C2787      O2792   1.371       .  S
C2788      C2789   1.403       .  A
C2788      H2793   1.084       .  S
C2789      C2790   1.408       .  A
C2790      O2794   1.372       .  S
C2791      C2796   1.406       .  A
C2791      C2800   1.402       .  A
O2792      H2808   0.990       .  S
O2794      H2805   0.992       .  S
C2796      C2797   1.402       .  A
C2796      O2801   1.371       .  S
C2797      C2798   1.405       .  A
C2797      H2802   1.083       .  S
C2798      C2799   1.408       .  A
C2799      C2800   1.399       .  A
C2799      O2803   1.372       .  S
C2800      H2804   1.084       .  S
O2801      H2806   0.991       .  S
O2803      H2807   0.992       .  S
C2809      C2810   1.403       .  A
C2809      C2814   1.396       .  A
C2809      H2819   1.083       .  S
C2810      C2811   1.413       .  A
C2810      C2815   1.489       .  S
C2811      C2812   1.405       .  A
C2811      O2816   1.371       .  S
C2812      C2813   1.403       .  A
C2812      H2817   1.083       .  S
C2813      C2814   1.409       .  A
C2814      O2818   1.370       .  S
C2815      C2820   1.411       .  A
C2815      C2824   1.404       .  A
O2816      H2832   0.991       .  S
O2818      H2829   0.992       .  S
C2820      C2821   1.403       .  A
C2820      O2825   1.372       .  S
C2821      C2822   1.404       .  A
C2821      H2826   1.083       .  S
C2822      C2823   1.410       .  A
C2823      C2824   1.399       .  A
C2823      O2827   1.371       .  S
C2824      H2828   1.083       .  S
O2825      H2830   0.992       .  S
O2827      H2831   0.991       .  S
C2833      C2834   1.406       .  A
C2833      C2838   1.406       .  A
C2833      H2843   1.083       .  S
C2834      C2835   1.407       .  A
C2834      C2839   1.490       .  S
C2835      C2836   1.400       .  A
C2835      O2840   1.372       .  S
C2836      C2837   1.408       .  A
C2836      H2841   1.083       .  S
C2837      C2838   1.414       .  A
C2838      O2842   1.371       .  S
C2839      C2844   1.412       .  A
C2839      C2848   1.402       .  A
O2840      H2856   0.991       .  S
O2842      H2853   0.993       .  S
C2844      C2845   1.409       .  A
C2844      O2849   1.371       .  S
C2845      C2846   1.404       .  A
C2845      H2850   1.083       .  S
C2846      C2847   1.411       .  A
C2847      C2848   1.399       .  A
C2847      O2851   1.372       .  S
C2848      H2852   1.084       .  S
O2849      H2854   0.991       .  S
O2851      H2855   0.993       .  S
C2857      C2858   1.403       .  A
C2857      C2862   1.401       .  A
C2857      H2867   1.084       .  S
C2858      C2859   1.407       .  A
C2858      C2863   1.486       .  S
C2859      C2860   1.403       .  A
C2859      O2864   1.371       .  S
C2860      C2861   1.409       .  A
C2860      H2865   1.083       .  S
C2861      C2862   1.414       .  A
C2862      O2866   1.371       .  S
C2863      C2868   1.406       .  A
C2863      C2872   1.408       .  A
O2864      H2880   0.993       .  S
O2866      H2877   0.993       .  S
C2868      C2869   1.396       .  A
C2868      O2873   1.372       .  S
C2869      C2870   1.404       .  A
C2869      H2874   1.084       .  S
C2870      C2871   1.408       .  A
C2871      C2872   1.408       .  A
C2871      O2875   1.371       .  S
C2872      H2876   1.083       .  S
O2873      H2878   0.994       .  S
O2875      H2879   0.991       .  S
C2881      C2882   1.402       .  A
C2881      C2886   1.397       .  A
C2881      H2891   1.084       .  S
C2882      C2883   1.408       .  A
C2882      C2887   1.478       .  S
C2883      C2884   1.402       .  A
C2883      O2888   1.372       .  S
C2884      C2885   1.405       .  A
C2884      H2889   1.084       .  S
C2885      C2886   1.411       .  A
C2886      O2890   1.372       .  S
C2887      C2892   1.408       .  A
C2887      C2896   1.403       .  A
O2888      H2904   0.993       .  S
O2890      H2901   0.993       .  S
C2892      C2893   1.400       .  A
C2892      O2897   1.372       .  S
C2893      C2894   1.404       .  A
C2893      H2898   1.084       .  S
C2894      C2895   1.408       .  A
C2895      C2896   1.397       .  A
C2895      O2899   1.372       .  S
C2896      H2900   1.084       .  S
O2897      H2902   0.992       .  S
O2899      H2903   0.992       .  S
C2905      C2906   1.404       .  A
C2905      C2910   1.400       .  A
C2905      H2915   1.083       .  S
C2906      C2907   1.410       .  A
C2906      C2911   1.485       .  S
C2907      C2908   1.398       .  A
C2907      O2912   1.372       .  S
C2908      C2909   1.406       .  A
C2908      H2913   1.084       .  S
C2909      C2910   1.411       .  A
C2910      O2914   1.371       .  S
C2911      C2916   1.411       .  A
C2911      C2920   1.404       .  A
O2912      H2928   0.991       .  S
O2914      H2925   0.992       .  S
C2916      C2917   1.401       .  A
C2916      O2921   1.372       .  S
C2917      C2918   1.403       .  A
C2917      H2922   1.084       .  S
C2918      C2919   1.409       .  A
C2919      C2920   1.397       .  A
C2919      O2923   1.372       .  S
C2920      H2924   1.083       .  S
O2921      H2926   0.993       .  S
O2923      H2927   0.991       .  S
C2929      C2930   1.403       .  A
C2929      C2934   1.402       .  A
C2929      H2939   1.083       .  S
C2930      C2931   1.410       .  A
C2930      C2935   1.491       .  S
C2931      C2932   1.403       .  A
C2931      O2936   1.372       .  S
C2932      C2933   1.408       .  A
C2932      H2937   1.083       .  S
C2933      C2934   1.415       .  A
C2934      O2938   1.371       .  S
C2935      C2940   1.414       .  A
C2935      C2944   1.402       .  A
O2936      H2952   0.991       .  S
O2938      H2949   0.992       .  S
C2940      C2941   1.409       .  A
C2940      O2945   1.372       .  S
C2941      C2942   1.403       .  A
C2941      H2946   1.083       .  S
C2942      C2943   1.410       .  A
C2943      C2944   1.396       .  A
C2943      O2947   1.372       .  S
C2944      H2948   1.083       .  S
O2945      H2950   0.992       .  S
O2947      H2951   0.991       .  S
C2953      C2954   1.401       .  A
C2953      C2958   1.399       .  A
C2953      H2963   1.084       .  S
C2954      C2955   1.406       .  A
C2954      C2959   1.474       .  S
C2955      C2956   1.398       .  A
C2955      O2960   1.372       .  S
C2956      C2957   1.403       .  A
C2956      H2961   1.083       .  S
C2957      C2958   1.411       .  A
C2958      O2962   1.372       .  S
C2959      C2964   1.406       .  A
C2959      C2968   1.403       .  A
O2960      H2976   0.992       .  S
O2962      H2973   0.993       .  S
C2964      C2965   1.395       .  A
C2964      O2969   1.372       .  S
C2965      C2966   1.403       .  A
C2965      H2970   1.084       .  S
C2966      C2967   1.408       .  A
C2967      C2968   1.401       .  A
C2967      O2971   1.372       .  S
C2968      H2972   1.084       .  S
O2969      H2974   0.993       .  S
O2971      H2975   0.993       .  S
C2977      C2978   1.403       .  A
C2977      C2982   1.397       .  A
C2977      H2987   1.084       .  S
C2978      C2979   1.410       .  A
C2978      C2983   1.485       .  S
C2979      C2980   1.402       .  A
C2979      O2984   1.372       .  S
C2980      C2981   1.406       .  A
C2980      H2985   1.084       .  S
C2981      C2982   1.410       .  A
C2982      O2986   1.372       .  S
C2983      C2988   1.410       .  A
C2983      C2992   1.403       .  A
O2984      H3000   0.992       .  S
O2986      H2997   0.992       .  S
C2988      C2989   1.400       .  A
C2988      O2993   1.372       .  S
C2989      C2990   1.403       .  A
C2989      H2994   1.084       .  S
C2990      C2991   1.411       .  A
C2991      C2992   1.401       .  A
C2991      O2995   1.372       .  S
C2992      H2996   1.083       .  S
O2993      H2998   0.992       .  S
O2995      H2999   0.992       .  S
C3001      C3002   1.401       .  A
C3001      C3006   1.400       .  A
C3001      H3011   1.084       .  S
C3002      C3003   1.409       .  A
C3002      C3007   1.484       .  S
C3003      C3004   1.400       .  A
C3003      O3008   1.372       .  S
C3004      C3005   1.406       .  A
C3004      H3009   1.083       .  S
C3005      C3006   1.416       .  A
C3006      O3010   1.371       .  S
C3007      C3012   1.407       .  A
C3007      C3016   1.407       .  A
O3008      H3024   0.993       .  S
O3010      H3021   0.993       .  S
C3012      C3013   1.396       .  A
C3012      O3017   1.372       .  S
C3013      C3014   1.403       .  A
C3013      H3018   1.084       .  S
C3014      C3015   1.407       .  A
C3015      C3016   1.404       .  A
C3015      O3019   1.371       .  S
C3016      H3020   1.084       .  S
O3017      H3022   0.992       .  S
O3019      H3023   0.993       .  S
C3025      C3026   1.408       .  A
C3025      C3030   1.408       .  A
C3025      H3035   1.083       .  S
C3026      C3027   1.410       .  A
C3026      C3031   1.490       .  S
C3027      C3028   1.394       .  A
C3027      O3032   1.372       .  S
C3028      C3029   1.402       .  A
C3028      H3033   1.084       .  S
C3029      C3030   1.409       .  A
C3030      O3034   1.371       .  S
C3031      C3036   1.413       .  A
C3031      C3040   1.402       .  A
O3032      H3048   0.992       .  S
O3034      H3045   0.992       .  S
C3036      C3037   1.407       .  A
C3036      O3041   1.371       .  S
C3037      C3038   1.404       .  A
C3037      H3042   1.083       .  S
C3038      C3039   1.411       .  A
C3039      C3040   1.396       .  A
C3039      O3043   1.372       .  S
C3040      H3044   1.084       .  S
O3041      H3046   0.991       .  S
O3043      H3047   0.992       .  S
C3049      C3050   1.402       .  A
C3049      C3054   1.399       .  A
C3049      H3059   1.084       .  S
C3050      C3051   1.411       .  A
C3050      C3055   1.485       .  S
C3051      C3052   1.405       .  A
C3051      O3056   1.373       .  S
C3052      C3053   1.403       .  A
C3052      H3057   1.083       .  S
C3053      C3054   1.407       .  A
C3054      O3058   1.371       .  S
C3055      C3060   1.409       .  A
C3055      C3064   1.402       .  A
O3056      H3072   0.991       .  S
O3058      H3069   0.992       .  S
C3060      C3061   1.400       .  A
C3060      O3065   1.372       .  S
C3061      C3062   1.408       .  A
C3061      H3066   1.083       .  S
C3062      C3063   1.414       .  A
C3063      C3064   1.402       .  A
C3063      O3067   1.371       .  S
C3064      H3068   1.084       .  S
O3065      H3070   0.992       .  S
O3067      H3071   0.992       .  S
C3073      C3074   1.407       .  A
C3073      C3078   1.402       .  A
C3073      H3083   1.083       .  S
C3074      C3075   1.412       .  A
C3074      C3079   1.488       .  S
C3075      C3076   1.399       .  A
C3075      O3080   1.371       .  S
C3076      C3077   1.399       .  A
C3076      H3081   1.083       .  S
C3077      C3078   1.404       .  A
C3078      O3082   1.371       .  S
C3079      C3084   1.409       .  A
C3079      C3088   1.404       .  A
O3080      H3096   0.993       .  S
O3082      H3093   0.991       .  S
C3084      C3085   1.402       .  A
C3084      O3089   1.372       .  S
C3085      C3086   1.404       .  A
C3085      H3090   1.083       .  S
C3086      C3087   1.409       .  A
C3087      C3088   1.402       .  A
C3087      O3091   1.372       .  S
C3088      H3092   1.084       .  S
O3089      H3094   0.991       .  S
O3091      H3095   0.993       .  S
C3097      C3098   1.411       .  A
C3097      C3102   1.398       .  A
C3097      H3107   1.081       .  S
C3098      C3099   1.421       .  A
C3098      C3103   1.511       .  S
C3099      C3100   1.405       .  A
C3099      O3104   1.370       .  S
C3100      C3101   1.401       .  A
C3100      H3105   1.084       .  S
C3101      C3102   1.403       .  A
C3102      O3106   1.371       .  S
C3103      C3108   1.419       .  A
C3103      C3112   1.415       .  A
O3104      H3120   0.992       .  S
O3106      H3117   0.992       .  S
C3108      C3109   1.393       .  A
C3108      O3113   1.371       .  S
C3109      C3110   1.400       .  A
C3109      H3114   1.084       .  S
C3110      C3111   1.408       .  A
C3111      C3112   1.410       .  A
C3111      O3115   1.373       .  S
C3112      H3116   1.081       .  S
O3113      H3118   0.991       .  S
O3115      H3119   0.991       .  S
C3121      C3122   1.403       .  A
C3121      C3126   1.405       .  A
C3121      H3131   1.083       .  S
C3122      C3123   1.406       .  A
C3122      C3127   1.481       .  S
C3123      C3124   1.396       .  A
C3123      O3128   1.372       .  S
C3124      C3125   1.404       .  A
C3124      H3129   1.084       .  S
C3125      C3126   1.413       .  A
C3126      O3130   1.371       .  S
C3127      C3132   1.409       .  A
C3127      C3136   1.402       .  A
O3128      H3144   0.992       .  S
O3130      H3141   0.990       .  S
C3132      C3133   1.405       .  A
C3132      O3137   1.371       .  S
C3133      C3134   1.404       .  A
C3133      H3138   1.084       .  S
C3134      C3135   1.406       .  A
C3135      C3136   1.398       .  A
C3135      O3139   1.372       .  S
C3136      H3140   1.084       .  S
O3137      H3142   0.994       .  S
O3139      H3143   0.992       .  S
C3145      C3146   1.405       .  A
C3145      C3150   1.391       .  A
C3145      H3155   1.083       .  S
C3146      C3147   1.413       .  A
C3146      C3151   1.489       .  S
C3147      C3148   1.405       .  A
C3147      O3152   1.373       .  S
C3148      C3149   1.403       .  A
C3148      H3153   1.083       .  S
C3149      C3150   1.403       .  A
C3150      O3154   1.369       .  S
C3151      C3156   1.413       .  A
C3151      C3160   1.406       .  A
O3152      H3168   0.993       .  S
O3154      H3165   0.990       .  S
C3156      C3157   1.401       .  A
C3156      O3161   1.371       .  S
C3157      C3158   1.402       .  A
C3157      H3162   1.083       .  S
C3158      C3159   1.403       .  A
C3159      C3160   1.394       .  A
C3159      O3163   1.366       .  S
C3160      H3164   1.083       .  S
O3161      H3166   0.991       .  S
O3163      H3167   0.992       .  S
C3169      C3170   1.402       .  A
C3169      C3174   1.398       .  A
C3169      H3179   1.084       .  S
C3170      C3171   1.411       .  A
C3170      C3175   1.485       .  S
C3171      C3172   1.407       .  A
C3171      O3176   1.372       .  S
C3172      C3173   1.403       .  A
C3172      H3177   1.084       .  S
C3173      C3174   1.407       .  A
C3174      O3178   1.372       .  S
C3175      C3180   1.410       .  A
C3175      C3184   1.404       .  A
O3176      H3192   0.992       .  S
O3178      H3189   0.993       .  S
C3180      C3181   1.401       .  A
C3180      O3185   1.372       .  S
C3181      C3182   1.403       .  A
C3181      H3186   1.084       .  S
C3182      C3183   1.409       .  A
C3183      C3184   1.404       .  A
C3183      O3187   1.370       .  S
C3184      H3188   1.084       .  S
O3185      H3190   0.993       .  S
O3187      H3191   0.993       .  S
C3193      C3194   1.404       .  A
C3193      C3198   1.393       .  A
C3193      H3203   1.083       .  S
C3194      C3195   1.415       .  A
C3194      C3199   1.497       .  S
C3195      C3196   1.407       .  A
C3195      O3200   1.371       .  S
C3196      C3197   1.405       .  A
C3196      H3201   1.079       .  S
C3197      C3198   1.410       .  A
C3198      O3202   1.372       .  S
C3199      C3204   1.414       .  A
C3199      C3208   1.409       .  A
O3200      H3216   0.991       .  S
O3202      H3213   0.992       .  S
C3204      C3205   1.398       .  A
C3204      O3209   1.372       .  S
C3205      C3206   1.399       .  A
C3205      H3210   1.082       .  S
C3206      C3207   1.406       .  A
C3207      C3208   1.404       .  A
C3207      O3211   1.372       .  S
C3208      H3212   1.083       .  S
O3209      H3214   0.990       .  S
O3211      H3215   0.991       .  S
C3217      C3218   1.411       .  A
C3217      C3222   1.403       .  A
C3217      H3227   1.083       .  S
C3218      C3219   1.419       .  A
C3218      C3223   1.508       .  S
C3219      C3220   1.410       .  A
C3219      O3224   1.373       .  S
C3220      C3221   1.399       .  A
C3220      H3225   1.083       .  S
C3221      C3222   1.404       .  A
C3222      O3226   1.371       .  S
C3223      C3228   1.415       .  A
C3223      C3232   1.412       .  A
O3224      H3240   0.993       .  S
O3226      H3237   0.992       .  S
C3228      C3229   1.401       .  A
C3228      O3233   1.371       .  S
C3229      C3230   1.404       .  A
C3229      H3234   1.082       .  S
C3230      C3231   1.409       .  A
C3231      C3232   1.407       .  A
C3231      O3235   1.371       .  S
C3232      H3236   1.083       .  S
O3233      H3238   0.992       .  S
O3235      H3239   0.994       .  S
C3241      C3242   1.409       .  A
C3241      C3246   1.406       .  A
C3241      H3251   1.083       .  S
C3242      C3243   1.410       .  A
C3242      C3247   1.494       .  S
C3243      C3244   1.399       .  A
C3243      O3248   1.372       .  S
C3244      C3245   1.406       .  A
C3244      H3249   1.084       .  S
C3245      C3246   1.410       .  A
C3246      O3250   1.371       .  S
C3247      C3252   1.413       .  A
C3247      C3256   1.405       .  A
O3248      H3264   0.992       .  S
O3250      H3261   0.991       .  S
C3252      C3253   1.405       .  A
C3252      O3257   1.371       .  S
C3253      C3254   1.403       .  A
C3253      H3258   1.082       .  S
C3254      C3255   1.408       .  A
C3255      C3256   1.399       .  A
C3255      O3259   1.373       .  S
C3256      H3260   1.083       .  S
O3257      H3262   0.990       .  S
O3259      H3263   0.992       .  S
C3265      C3266   1.403       .  A
C3265      C3270   1.397       .  A
C3265      H3275   1.083       .  S
C3266      C3267   1.409       .  A
C3266      C3271   1.480       .  S
C3267      C3268   1.399       .  A
C3267      O3272   1.372       .  S
C3268      C3269   1.404       .  A
C3268      H3273   1.084       .  S
C3269      C3270   1.409       .  A
C3270      O3274   1.372       .  S
C3271      C3276   1.406       .  A
C3271      C3280   1.403       .  A
O3272      H3288   0.992       .  S
O3274      H3285   0.993       .  S
C3276      C3277   1.397       .  A
C3276      O3281   1.373       .  S
C3277      C3278   1.406       .  A
C3277      H3282   1.083       .  S
C3278      C3279   1.414       .  A
C3279      C3280   1.401       .  A
C3279      O3283   1.371       .  S
C3280      H3284   1.084       .  S
O3281      H3286   0.991       .  S
O3283      H3287   0.992       .  S
C3289      C3290   1.407       .  A
C3289      C3294   1.400       .  A
C3289      H3299   1.083       .  S
C3290      C3291   1.413       .  A
C3290      C3295   1.497       .  S
C3291      C3292   1.404       .  A
C3291      O3296   1.371       .  S
C3292      C3293   1.405       .  A
C3292      H3297   1.083       .  S
C3293      C3294   1.410       .  A
C3294      O3298   1.372       .  S
C3295      C3300   1.412       .  A
C3295      C3304   1.408       .  A
O3296      H3312   0.992       .  S
O3298      H3309   0.991       .  S
C3300      C3301   1.399       .  A
C3300      O3305   1.372       .  S
C3301      C3302   1.407       .  A
C3301      H3306   1.083       .  S
C3302      C3303   1.411       .  A
C3303      C3304   1.406       .  A
C3303      O3307   1.371       .  S
C3304      H3308   1.083       .  S
O3305      H3310   0.991       .  S
O3307      H3311   0.991       .  S
C3313      C3314   1.404       .  A
C3313      C3318   1.401       .  A
C3313      H3323   1.084       .  S
C3314      C3315   1.412       .  A
C3314      C3319   1.498       .  S
C3315      C3316   1.410       .  A
C3315      O3320   1.372       .  S
C3316      C3317   1.410       .  A
C3316      H3321   1.083       .  S
C3317      C3318   1.415       .  A
C3318      O3322   1.371       .  S
C3319      C3324   1.415       .  A
C3319      C3328   1.403       .  A
O3320      H3336   0.995       .  S
O3322      H3333   0.991       .  S
C3324      C3325   1.411       .  A
C3324      O3329   1.370       .  S
C3325      C3326   1.405       .  A
C3325      H3330   1.083       .  S
C3326      C3327   1.413       .  A
C3327      C3328   1.396       .  A
C3327      O3331   1.372       .  S
C3328      H3332   1.084       .  S
O3329      H3334   0.990       .  S
O3331      H3335   0.991       .  S
C3337      C3338   1.404       .  A
C3337      C3342   1.398       .  A
C3337      H3347   1.083       .  S
C3338      C3339   1.412       .  A
C3338      C3343   1.488       .  S
C3339      C3340   1.403       .  A
C3339      O3344   1.371       .  S
C3340      C3341   1.403       .  A
C3340      H3345   1.084       .  S
C3341      C3342   1.409       .  A
C3342      O3346   1.372       .  S
C3343      C3348   1.411       .  A
C3343      C3352   1.405       .  A
O3344      H3360   0.991       .  S
O3346      H3357   0.992       .  S
C3348      C3349   1.398       .  A
C3348      O3353   1.372       .  S
C3349      C3350   1.405       .  A
C3349      H3354   1.084       .  S
C3350      C3351   1.411       .  A
C3351      C3352   1.402       .  A
C3351      O3355   1.371       .  S
C3352      H3356   1.083       .  S
O3353      H3358   0.990       .  S
O3355      H3359   0.993       .  S
C3361      C3362   1.406       .  A
C3361      C3366   1.402       .  A
C3361      H3371   1.083       .  S
C3362      C3363   1.411       .  A
C3362      C3367   1.491       .  S
C3363      C3364   1.402       .  A
C3363      O3368   1.373       .  S
C3364      C3365   1.404       .  A
C3364      H3369   1.084       .  S
C3365      C3366   1.410       .  A
C3366      O3370   1.372       .  S
C3367      C3372   1.410       .  A
C3367      C3376   1.406       .  A
O3368      H3384   0.995       .  S
O3370      H3381   0.993       .  S
C3372      C3373   1.399       .  A
C3372      O3377   1.371       .  S
C3373      C3374   1.405       .  A
C3373      H3378   1.083       .  S
C3374      C3375   1.411       .  A
C3375      C3376   1.403       .  A
C3375      O3379   1.372       .  S
C3376      H3380   1.083       .  S
O3377      H3382   0.992       .  S
O3379      H3383   0.992       .  S
C3385      C3386   1.404       .  A
C3385      C3390   1.396       .  A
C3385      H3395   1.083       .  S
C3386      C3387   1.414       .  A
C3386      C3391   1.490       .  S
C3387      C3388   1.404       .  A
C3387      O3392   1.371       .  S
C3388      C3389   1.401       .  A
C3388      H3393   1.084       .  S
C3389      C3390   1.406       .  A
C3390      O3394   1.373       .  S
C3391      C3396   1.410       .  A
C3391      C3400   1.407       .  A
O3392      H3408   0.991       .  S
O3394      H3405   0.991       .  S
C3396      C3397   1.397       .  A
C3396      O3401   1.372       .  S
C3397      C3398   1.406       .  A
C3397      H3402   1.083       .  S
C3398      C3399   1.411       .  A
C3399      C3400   1.403       .  A
C3399      O3403   1.371       .  S
C3400      H3404   1.083       .  S
O3401      H3406   0.990       .  S
O3403      H3407   0.992       .  S
C3409      C3410   1.405       .  A
C3409      C3414   1.405       .  A
C3409      H3419   1.083       .  S
C3410      C3411   1.410       .  A
C3410      C3415   1.489       .  S
C3411      C3412   1.404       .  A
C3411      O3416   1.373       .  S
C3412      C3413   1.403       .  A
C3412      H3417   1.084       .  S
C3413      C3414   1.407       .  A
C3414      O3418   1.371       .  S
C3415      C3420   1.411       .  A
C3415      C3424   1.403       .  A
O3416      H3432   0.991       .  S
O3418      H3429   0.991       .  S
C3420      C3421   1.403       .  A
C3420      O3425   1.371       .  S
C3421      C3422   1.403       .  A
C3421      H3426   1.083       .  S
C3422      C3423   1.414       .  A
C3423      C3424   1.403       .  A
C3423      O3427   1.372       .  S
C3424      H3428   1.084       .  S
O3425      H3430   0.992       .  S
O3427      H3431   0.993       .  S
C3433      C3434   1.408       .  A
C3433      C3438   1.410       .  A
C3433      H3443   1.083       .  S
C3434      C3435   1.408       .  A
C3434      C3439   1.489       .  S
C3435      C3436   1.398       .  A
C3435      O3440   1.372       .  S
C3436      C3437   1.402       .  A
C3436      H3441   1.083       .  S
C3437      C3438   1.407       .  A
C3438      O3442   1.371       .  S
C3439      C3444   1.410       .  A
C3439      C3448   1.404       .  A
O3440      H3456   0.990       .  S
O3442      H3453   0.991       .  S
C3444      C3445   1.408       .  A
C3444      O3449   1.371       .  S
C3445      C3446   1.406       .  A
C3445      H3450   1.083       .  S
C3446      C3447   1.407       .  A
C3447      C3448   1.399       .  A
C3447      O3451   1.371       .  S
C3448      H3452   1.084       .  S
O3449      H3454   0.992       .  S
O3451      H3455   0.994       .  S
C3457      C3458   1.405       .  A
C3457      C3462   1.403       .  A
C3457      H3467   1.084       .  S
C3458      C3459   1.411       .  A
C3458      C3463   1.486       .  S
C3459      C3460   1.400       .  A
C3459      O3464   1.373       .  S
C3460      C3461   1.402       .  A
C3460      H3465   1.084       .  S
C3461      C3462   1.411       .  A
C3462      O3466   1.371       .  S
C3463      C3468   1.409       .  A
C3463      C3472   1.406       .  A
O3464      H3480   0.994       .  S
O3466      H3477   0.991       .  S
C3468      C3469   1.402       .  A
C3468      O3473   1.374       .  S
C3469      C3470   1.401       .  A
C3469      H3474   1.084       .  S
C3470      C3471   1.405       .  A
C3471      C3472   1.401       .  A
C3471      O3475   1.371       .  S
C3472      H3476   1.084       .  S
O3473      H3478   0.993       .  S
O3475      H3479   0.991       .  S
C3481      C3482   1.407       .  A
C3481      C3486   1.402       .  A
C3481      H3491   1.083       .  S
C3482      C3483   1.415       .  A
C3482      C3487   1.498       .  S
C3483      C3484   1.405       .  A
C3483      O3488   1.372       .  S
C3484      C3485   1.402       .  A
C3484      H3489   1.084       .  S
C3485      C3486   1.406       .  A
C3486      O3490   1.373       .  S
C3487      C3492   1.411       .  A
C3487      C3496   1.408       .  A
O3488      H3504   0.993       .  S
O3490      H3501   0.991       .  S
C3492      C3493   1.399       .  A
C3492      O3497   1.373       .  S
C3493      C3494   1.406       .  A
C3493      H3498   1.084       .  S
C3494      C3495   1.412       .  A
C3495      C3496   1.406       .  A
C3495      O3499   1.369       .  S
C3496      H3500   1.083       .  S
O3497      H3502   0.992       .  S
O3499      H3503   0.991       .  S
C3505      C3506   1.405       .  A
C3505      C3510   1.391       .  A
C3505      H3515   1.084   1_655  S
C3506      C3507   1.412       .  A
C3506      C3511   1.489       .  S
C3507      C3508   1.406       .  A
C3507      O3512   1.372       .  S
C3508      C3509   1.404       .  A
C3508      H3513   1.083       .  S
C3509      C3510   1.402       .  A
C3510      O3514   1.369   1_655  S
C3511      C3516   1.411       .  A
C3511      C3520   1.406       .  A
O3512      H3528   0.993       .  S
O3514      H3525   0.994   1_455  S
C3516      C3517   1.403       .  A
C3516      O3521   1.371   1_655  S
C3517      C3518   1.405       .  A
C3517      H3522   1.083       .  S
C3518      C3519   1.404       .  A
C3519      C3520   1.393       .  A
C3519      O3523   1.368       .  S
C3520      H3524   1.084       .  S
O3521      H3526   0.992       .  S
O3523      H3527   0.992       .  S
C3529      C3530   1.408       .  A
C3529      C3534   1.407       .  A
C3529      H3539   1.083       .  S
C3530      C3531   1.412       .  A
C3530      C3535   1.496       .  S
C3531      C3532   1.400       .  A
C3531      O3536   1.372       .  S
C3532      C3533   1.404       .  A
C3532      H3537   1.084       .  S
C3533      C3534   1.407       .  A
C3534      O3538   1.371       .  S
C3535      C3540   1.416       .  A
C3535      C3544   1.403       .  A
O3536      H3552   0.992       .  S
O3538      H3549   0.992       .  S
C3540      C3541   1.408       .  A
C3540      O3545   1.371       .  S
C3541      C3542   1.403       .  A
C3541      H3546   1.083       .  S
C3542      C3543   1.411       .  A
C3543      C3544   1.400       .  A
C3543      O3547   1.372       .  S
C3544      H3548   1.083       .  S
O3545      H3550   0.993       .  S
O3547      H3551   0.990       .  S
C3553      C3554   1.404       .  A
C3553      C3558   1.398       .  A
C3553      H3563   1.082       .  S
C3554      C3555   1.417       .  A
C3554      C3559   1.504       .  S
C3555      C3556   1.412       .  A
C3555      O3560   1.371       .  S
C3556      C3557   1.407       .  A
C3556      H3561   1.083       .  S
C3557      C3558   1.412       .  A
C3558      O3562   1.374       .  S
C3559      C3564   1.416       .  A
C3559      C3568   1.411       .  A
O3560      H3576   0.992       .  S
O3562      H3573   0.991       .  S
C3564      C3565   1.400       .  A
C3564      O3569   1.371       .  S
C3565      C3566   1.399       .  A
C3565      H3570   1.083       .  S
C3566      C3567   1.406       .  A
C3567      C3568   1.407       .  A
C3567      O3571   1.372       .  S
C3568      H3572   1.082       .  S
O3569      H3574   0.991       .  S
O3571      H3575   0.991       .  S
C3577      C3578   1.403       .  A
C3577      C3582   1.398       .  A
C3577      H3587   1.084       .  S
C3578      C3579   1.413       .  A
C3578      C3583   1.491       .  S
C3579      C3580   1.407       .  A
C3579      O3584   1.373       .  S
C3580      C3581   1.403       .  A
C3580      H3585   1.083       .  S
C3581      C3582   1.409       .  A
C3582      O3586   1.372       .  S
C3583      C3588   1.411       .  A
C3583      C3592   1.402       .  A
O3584      H3600   0.993       .  S
O3586      H3597   0.991       .  S
C3588      C3589   1.404       .  A
C3588      O3593   1.371       .  S
C3589      C3590   1.408       .  A
C3589      H3594   1.083       .  S
C3590      C3591   1.416       .  A
C3591      C3592   1.401       .  A
C3591      O3595   1.371       .  S
C3592      H3596   1.084       .  S
O3593      H3598   0.992       .  S
O3595      H3599   0.992       .  S
C3601      C3602   1.404       .  A
C3601      C3606   1.406       .  A
C3601      H3611   1.083       .  S
C3602      C3603   1.407       .  A
C3602      C3607   1.482       .  S
C3603      C3604   1.397       .  A
C3603      O3608   1.372       .  S
C3604      C3605   1.402       .  A
C3604      H3609   1.084       .  S
C3605      C3606   1.408       .  A
C3606      O3610   1.371       .  S
C3607      C3612   1.406       .  A
C3607      C3616   1.402       .  A
O3608      H3624   0.993       .  S
O3610      H3621   0.991       .  S
C3612      C3613   1.406       .  A
C3612      O3617   1.371       .  S
C3613      C3614   1.408       .  A
C3613      H3618   1.083       .  S
C3614      C3615   1.409       .  A
C3615      C3616   1.397       .  A
C3615      O3619   1.372       .  S
C3616      H3620   1.084       .  S
O3617      H3622   0.991       .  S
O3619      H3623   0.993       .  S
C3625      C3626   1.405       .  A
C3625      C3630   1.399       .  A
C3625      H3635   1.083       .  S
C3626      C3627   1.415       .  A
C3626      C3631   1.499       .  S
C3627      C3628   1.406       .  A
C3627      O3632   1.371       .  S
C3628      C3629   1.404       .  A
C3628      H3633   1.083       .  S
C3629      C3630   1.411       .  A
C3630      O3634   1.371       .  S
C3631      C3636   1.416       .  A
C3631      C3640   1.408       .  A
O3632      H3648   0.991       .  S
O3634      H3645   0.991       .  S
C3636      C3637   1.402       .  A
C3636      O3641   1.372       .  S
C3637      C3638   1.399       .  A
C3637      H3642   1.083       .  S
C3638      C3639   1.406       .  A
C3639      C3640   1.404       .  A
C3639      O3643   1.371       .  S
C3640      H3644   1.083       .  S
O3641      H3646   0.992       .  S
O3643      H3647   0.991       .  S
C3649      C3650   1.409       .  A
C3649      C3654   1.408       .  A
C3649      H3659   1.083       .  S
C3650      C3651   1.409       .  A
C3650      C3655   1.496       .  S
C3651      C3652   1.400       .  A
C3651      O3656   1.372       .  S
C3652      C3653   1.405       .  A
C3652      H3657   1.084       .  S
C3653      C3654   1.410       .  A
C3654      O3658   1.371       .  S
C3655      C3660   1.410       .  A
C3655      C3664   1.406       .  A
O3656      H3672   0.993       .  S
O3658      H3669   0.991       .  S
C3660      C3661   1.404       .  A
C3660      O3665   1.372       .  S
C3661      C3662   1.407       .  A
C3661      H3666   1.083       .  S
C3662      C3663   1.414       .  A
C3663      C3664   1.405       .  A
C3663      O3667   1.371       .  S
C3664      H3668   1.083       .  S
O3665      H3670   0.992       .  S
O3667      H3671   0.993       .  S
C3673      C3674   1.403       .  A
C3673      C3678   1.403       .  A
C3673      H3683   1.083       .  S
C3674      C3675   1.409       .  A
C3674      C3679   1.490       .  S
C3675      C3676   1.404       .  A
C3675      O3680   1.372       .  S
C3676      C3677   1.409       .  A
C3676      H3681   1.083       .  S
C3677      C3678   1.416       .  A
C3678      O3682   1.371       .  S
C3679      C3684   1.412       .  A
C3679      C3688   1.401       .  A
O3680      H3696   0.991       .  S
O3682      H3693   0.992       .  S
C3684      C3685   1.409       .  A
C3684      O3689   1.372       .  S
C3685      C3686   1.404       .  A
C3685      H3690   1.083       .  S
C3686      C3687   1.412       .  A
C3687      C3688   1.399       .  A
C3687      O3691   1.372       .  S
C3688      H3692   1.084       .  S
O3689      H3694   0.991       .  S
O3691      H3695   0.991       .  S
C3697      C3698   1.406       .  A
C3697      C3702   1.399       .  A
C3697      H3707   1.081       .  S
C3698      C3699   1.415       .  A
C3698      C3703   1.497       .  S
C3699      C3700   1.400       .  A
C3699      O3704   1.372       .  S
C3700      C3701   1.404       .  A
C3700      H3705   1.082       .  S
C3701      C3702   1.410       .  A
C3702      O3706   1.370       .  S
C3703      C3708   1.416       .  A
C3703      C3712   1.408       .  A
O3704      H3720   0.991       .  S
O3706      H3717   0.990       .  S
C3708      C3709   1.403       .  A
C3708      O3713   1.372       .  S
C3709      C3710   1.401       .  A
C3709      H3714   1.083       .  S
C3710      C3711   1.406       .  A
C3711      C3712   1.398       .  A
C3711      O3715   1.371       .  S
C3712      H3716   1.082       .  S
O3713      H3718   0.995       .  S
O3715      H3719   0.992       .  S
C3721      C3722   1.403       .  A
C3721      C3726   1.401       .  A
C3721      H3731   1.084       .  S
C3722      C3723   1.408       .  A
C3722      C3727   1.487       .  S
C3723      C3724   1.408       .  A
C3723      O3728   1.371       .  S
C3724      C3725   1.407       .  A
C3724      H3729   1.083       .  S
C3725      C3726   1.409       .  A
C3726      O3730   1.372       .  S
C3727      C3732   1.410       .  A
C3727      C3736   1.402       .  A
O3728      H3744   0.992       .  S
O3730      H3741   0.989       .  S
C3732      C3733   1.410       .  A
C3732      O3737   1.371       .  S
C3733      C3734   1.406       .  A
C3733      H3738   1.083       .  S
C3734      C3735   1.410       .  A
C3735      C3736   1.399       .  A
C3735      O3739   1.372       .  S
C3736      H3740   1.084       .  S
O3737      H3742   0.991       .  S
O3739      H3743   0.993       .  S
C3745      C3746   1.403       .  A
C3745      C3750   1.397       .  A
C3745      H3755   1.084       .  S
C3746      C3747   1.411       .  A
C3746      C3751   1.491       .  S
C3747      C3748   1.412       .  A
C3747      O3752   1.371       .  S
C3748      C3749   1.408       .  A
C3748      H3753   1.083       .  S
C3749      C3750   1.407       .  A
C3750      O3754   1.372       .  S
C3751      C3756   1.412       .  A
C3751      C3760   1.403       .  A
O3752      H3768   0.992       .  S
O3754      H3765   0.992       .  S
C3756      C3757   1.411       .  A
C3756      O3761   1.371       .  S
C3757      C3758   1.406       .  A
C3757      H3762   1.083       .  S
C3758      C3759   1.409       .  A
C3759      C3760   1.398       .  A
C3759      O3763   1.373       .  S
C3760      H3764   1.084       .  S
O3761      H3766   0.992       .  S
O3763      H3767   0.992       .  S
C3769      C3770   1.405       .  A
C3769      C3774   1.400       .  A
C3769      H3779   1.083       .  S
C3770      C3771   1.408       .  A
C3770      C3775   1.479       .  S
C3771      C3772   1.392       .  A
C3771      O3776   1.372       .  S
C3772      C3773   1.400       .  A
C3772      H3777   1.083       .  S
C3773      C3774   1.409       .  A
C3774      O3778   1.371       .  S
C3775      C3780   1.409       .  A
C3775      C3784   1.403       .  A
O3776      H3792   0.992       .  S
O3778      H3789   0.991       .  S
C3780      C3781   1.400       .  A
C3780      O3785   1.372       .  S
C3781      C3782   1.402       .  A
C3781      H3786   1.083       .  S
C3782      C3783   1.406       .  A
C3783      C3784   1.394       .  A
C3783      O3787   1.371       .  S
C3784      H3788   1.084       .  S
O3785      H3790   0.992       .  S
O3787      H3791   0.992       .  S
C3793      C3794   1.407       .  A
C3793      C3798   1.406       .  A
C3793      H3803   1.083       .  S
C3794      C3795   1.413       .  A
C3794      C3799   1.497       .  S
C3795      C3796   1.405       .  A
C3795      O3800   1.372       .  S
C3796      C3797   1.403       .  A
C3796      H3801   1.084       .  S
C3797      C3798   1.408       .  A
C3798      O3802   1.372       .  S
C3799      C3804   1.411       .  A
C3799      C3808   1.407       .  A
O3800      H3816   0.993       .  S
O3802      H3813   0.993       .  S
C3804      C3805   1.404       .  A
C3804      O3809   1.372       .  S
C3805      C3806   1.405       .  A
C3805      H3810   1.084       .  S
C3806      C3807   1.410       .  A
C3807      C3808   1.409       .  A
C3807      O3811   1.371       .  S
C3808      H3812   1.083       .  S
O3809      H3814   0.992       .  S
O3811      H3815   0.993       .  S
C3817      C3818   1.403       .  A
C3817      C3822   1.401       .  A
C3817      H3827   1.084       .  S
C3818      C3819   1.410       .  A
C3818      C3823   1.487       .  S
C3819      C3820   1.406       .  A
C3819      O3824   1.371       .  S
C3820      C3821   1.403       .  A
C3820      H3825   1.084       .  S
C3821      C3822   1.408       .  A
C3822      O3826   1.371       .  S
C3823      C3828   1.410       .  A
C3823      C3832   1.402       .  A
O3824      H3840   0.991       .  S
O3826      H3837   0.991       .  S
C3828      C3829   1.408       .  A
C3828      O3833   1.371       .  S
C3829      C3830   1.408       .  A
C3829      H3834   1.083       .  S
C3830      C3831   1.408       .  A
C3831      C3832   1.400       .  A
C3831      O3835   1.372       .  S
C3832      H3836   1.084       .  S
O3833      H3838   0.993       .  S
O3835      H3839   0.991       .  S
C3841      C3842   1.406       .  A
C3841      C3846   1.403       .  A
C3841      H3851   1.083       .  S
C3842      C3843   1.409       .  A
C3842      C3847   1.487       .  S
C3843      C3844   1.397       .  A
C3843      O3848   1.372       .  S
C3844      C3845   1.403       .  A
C3844      H3849   1.083       .  S
C3845      C3846   1.409       .  A
C3846      O3850   1.371       .  S
C3847      C3852   1.409       .  A
C3847      C3856   1.406       .  A
O3848      H3864   0.992       .  S
O3850      H3861   0.991       .  S
C3852      C3853   1.401       .  A
C3852      O3857   1.372       .  S
C3853      C3854   1.404       .  A
C3853      H3858   1.083       .  S
C3854      C3855   1.408       .  A
C3855      C3856   1.401       .  A
C3855      O3859   1.371       .  S
C3856      H3860   1.084       .  S
O3857      H3862   0.992       .  S
O3859      H3863   0.991       .  S
C3865      C3866   1.405       .  A
C3865      C3870   1.399       .  A
C3865      H3875   1.083       .  S
C3866      C3867   1.413       .  A
C3866      C3871   1.495       .  S
C3867      C3868   1.407       .  A
C3867      O3872   1.371       .  S
C3868      C3869   1.404       .  A
C3868      H3873   1.083       .  S
C3869      C3870   1.409       .  A
C3870      O3874   1.370       .  S
C3871      C3876   1.412       .  A
C3871      C3880   1.405       .  A
O3872      H3888   0.992       .  S
O3874      H3885   0.993       .  S
C3876      C3877   1.405       .  A
C3876      O3881   1.372       .  S
C3877      C3878   1.402       .  A
C3877      H3882   1.083       .  S
C3878      C3879   1.410       .  A
C3879      C3880   1.403       .  A
C3879      O3883   1.370       .  S
C3880      H3884   1.083       .  S
O3881      H3886   0.993       .  S
O3883      H3887   0.990       .  S
C3889      C3890   1.403       .  A
C3889      C3894   1.401       .  A
C3889      H3899   1.084       .  S
C3890      C3891   1.406       .  A
C3890      C3895   1.480       .  S
C3891      C3892   1.403       .  A
C3891      O3896   1.371       .  S
C3892      C3893   1.406       .  A
C3892      H3897   1.083       .  S
C3893      C3894   1.409       .  A
C3894      O3898   1.372       .  S
C3895      C3900   1.409       .  A
C3895      C3904   1.402       .  A
O3896      H3912   0.991       .  S
O3898      H3909   0.992       .  S
C3900      C3901   1.404       .  A
C3900      O3905   1.372       .  S
C3901      C3902   1.402       .  A
C3901      H3906   1.084       .  S
C3902      C3903   1.406       .  A
C3903      C3904   1.398       .  A
C3903      O3907   1.372       .  S
C3904      H3908   1.084       .  S
O3905      H3910   0.991       .  S
O3907      H3911   0.991       .  S
C3913      C3914   1.402       .  A
C3913      C3918   1.400       .  A
C3913      H3923   1.084       .  S
C3914      C3915   1.409       .  A
C3914      C3919   1.482       .  S
C3915      C3916   1.404       .  A
C3915      O3920   1.372       .  S
C3916      C3917   1.406       .  A
C3916      H3921   1.083       .  S
C3917      C3918   1.408       .  A
C3918      O3922   1.372       .  S
C3919      C3924   1.409       .  A
C3919      C3928   1.403       .  A
O3920      H3936   0.992       .  S
O3922      H3933   0.991       .  S
C3924      C3925   1.404       .  A
C3924      O3929   1.372       .  S
C3925      C3926   1.402       .  A
C3925      H3930   1.084       .  S
C3926      C3927   1.406       .  A
C3927      C3928   1.399       .  A
C3927      O3931   1.372       .  S
C3928      H3932   1.084       .  S
O3929      H3934   0.992       .  S
O3931      H3935   0.992       .  S
C3937      C3938   1.404       .  A
C3937      C3942   1.395       .  A
C3937      H3947   1.083   1_545  S
C3938      C3939   1.409       .  A
C3938      C3943   1.482       .  S
C3939      C3940   1.399       .  A
C3939      O3944   1.371       .  S
C3940      C3941   1.403       .  A
C3940      H3945   1.083       .  S
C3941      C3942   1.407       .  A
C3942      O3946   1.371   1_545  S
C3943      C3948   1.409       .  A
C3943      C3952   1.406       .  A
O3944      H3960   0.992       .  S
O3946      H3957   0.990   1_565  S
C3948      C3949   1.395       .  A
C3948      O3953   1.373       .  S
C3949      C3950   1.399       .  A
C3949      H3954   1.083       .  S
C3950      C3951   1.409       .  A
C3951      C3952   1.400       .  A
C3951      O3955   1.372   1_545  S
C3952      H3956   1.083   1_545  S
O3953      H3958   0.992       .  S
O3955      H3959   0.992   1_565  S
C3961      C3962   1.403       .  A
C3961      C3966   1.401       .  A
C3961      H3971   1.083       .  S
C3962      C3963   1.415       .  A
C3962      C3967   1.495       .  S
C3963      C3964   1.406       .  A
C3963      O3968   1.372       .  S
C3964      C3965   1.402       .  A
C3964      H3969   1.084       .  S
C3965      C3966   1.410       .  A
C3966      O3970   1.371       .  S
C3967      C3972   1.412       .  A
C3967      C3976   1.403       .  A
O3968      H3984   0.991       .  S
O3970      H3981   0.992       .  S
C3972      C3973   1.408       .  A
C3972      O3977   1.372       .  S
C3973      C3974   1.410       .  A
C3973      H3978   1.083       .  S
C3974      C3975   1.414       .  A
C3975      C3976   1.400       .  A
C3975      O3979   1.371       .  S
C3976      H3980   1.083       .  S
O3977      H3982   0.991       .  S
O3979      H3983   0.992       .  S
C3985      C3986   1.401       .  A
C3985      C3990   1.398       .  A
C3985      H3995   1.084       .  S
C3986      C3987   1.409       .  A
C3986      C3991   1.483       .  S
C3987      C3988   1.408       .  A
C3987      O3992   1.371       .  S
C3988      C3989   1.405       .  A
C3988      H3993   1.083       .  S
C3989      C3990   1.406       .  A
C3990      O3994   1.372       .  S
C3991      C3996   1.408       .  A
C3991      C4000   1.402       .  A
O3992      H4008   0.991       .  S
O3994      H4005   0.990       .  S
C3996      C3997   1.408       .  A
C3996      O4001   1.371       .  S
C3997      C3998   1.407       .  A
C3997      H4002   1.083       .  S
C3998      C3999   1.407       .  A
C3999      C4000   1.398       .  A
C3999      O4003   1.372       .  S
C4000      H4004   1.084       .  S
O4001      H4006   0.991       .  S
O4003      H4007   0.991       .  S
C4009      C4010   1.403       .  A
C4009      C4014   1.404       .  A
C4009      H4019   1.084       .  S
C4010      C4011   1.408       .  A
C4010      C4015   1.486       .  S
C4011      C4012   1.398       .  A
C4011      O4016   1.372       .  S
C4012      C4013   1.407       .  A
C4012      H4017   1.083       .  S
C4013      C4014   1.416       .  A
C4014      O4018   1.371       .  S
C4015      C4020   1.408       .  A
C4015      C4024   1.406       .  A
O4016      H4032   0.991       .  S
O4018      H4029   0.991       .  S
C4020      C4021   1.399       .  A
C4020      O4025   1.372       .  S
C4021      C4022   1.404       .  A
C4021      H4026   1.084       .  S
C4022      C4023   1.406       .  A
C4023      C4024   1.402       .  A
C4023      O4027   1.371       .  S
C4024      H4028   1.083       .  S
O4025      H4030   0.993       .  S
O4027      H4031   0.993       .  S
C4033      C4034   1.401       .  A
C4033      C4038   1.395       .  A
C4033      H4043   1.084       .  S
C4034      C4035   1.409       .  A
C4034      C4039   1.481       .  S
C4035      C4036   1.407       .  A
C4035      O4040   1.371       .  S
C4036      C4037   1.405       .  A
C4036      H4041   1.083       .  S
C4037      C4038   1.407       .  A
C4038      O4042   1.373       .  S
C4039      C4044   1.408       .  A
C4039      C4048   1.402       .  A
O4040      H4056   0.992       .  S
O4042      H4053   0.991       .  S
C4044      C4045   1.406       .  A
C4044      O4049   1.371       .  S
C4045      C4046   1.407       .  A
C4045      H4050   1.083       .  S
C4046      C4047   1.408       .  A
C4047      C4048   1.395       .  A
C4047      O4051   1.372       .  S
C4048      H4052   1.084       .  S
O4049      H4054   0.992       .  S
O4051      H4055   0.992       .  S
C4057      C4058   1.407       .  A
C4057      C4062   1.397       .  A
C4057      H4067   1.082       .  S
C4058      C4059   1.416       .  A
C4058      C4063   1.497       .  S
C4059      C4060   1.403       .  A
C4059      O4064   1.371       .  S
C4060      C4061   1.402       .  A
C4060      H4065   1.083       .  S
C4061      C4062   1.407       .  A
C4062      O4066   1.370       .  S
C4063      C4068   1.415       .  A
C4063      C4072   1.407       .  A
O4064      H4080   0.991       .  S
O4066      H4077   0.991       .  S
C4068      C4069   1.400       .  A
C4068      O4073   1.372       .  S
C4069      C4070   1.403       .  A
C4069      H4074   1.082       .  S
C4070      C4071   1.410       .  A
C4071      C4072   1.399       .  A
C4071      O4075   1.371       .  S
C4072      H4076   1.082       .  S
O4073      H4078   0.990       .  S
O4075      H4079   0.991       .  S
C4081      C4082   1.404       .  A
C4081      C4086   1.402       .  A
C4081      H4091   1.084       .  S
C4082      C4083   1.407       .  A
C4082      C4087   1.484       .  S
C4083      C4084   1.398       .  A
C4083      O4088   1.372       .  S
C4084      C4085   1.406       .  A
C4084      H4089   1.083       .  S
C4085      C4086   1.412       .  A
C4086      O4090   1.371       .  S
C4087      C4092   1.411       .  A
C4087      C4096   1.401       .  A
O4088      H4104   0.992       .  S
O4090      H4101   0.992       .  S
C4092      C4093   1.404       .  A
C4092      O4097   1.371       .  S
C4093      C4094   1.402       .  A
C4093      H4098   1.084       .  S
C4094      C4095   1.409       .  A
C4095      C4096   1.398       .  A
C4095      O4099   1.373       .  S
C4096      H4100   1.084       .  S
O4097      H4102   0.990       .  S
O4099      H4103   0.993       .  S
C4105      C4106   1.402       .  A
C4105      C4110   1.400       .  A
C4105      H4115   1.084       .  S
C4106      C4107   1.409       .  A
C4106      C4111   1.487       .  S
C4107      C4108   1.404       .  A
C4107      O4112   1.373       .  S
C4108      C4109   1.406       .  A
C4108      H4113   1.083       .  S
C4109      C4110   1.414       .  A
C4110      O4114   1.372       .  S
C4111      C4116   1.411       .  A
C4111      C4120   1.401       .  A
O4112      H4128   0.992       .  S
O4114      H4125   0.992       .  S
C4116      C4117   1.408       .  A
C4116      O4121   1.373       .  S
C4117      C4118   1.404       .  A
C4117      H4122   1.083       .  S
C4118      C4119   1.410       .  A
C4119      C4120   1.398       .  A
C4119      O4123   1.371       .  S
C4120      H4124   1.084       .  S
O4121      H4126   0.991       .  S
O4123      H4127   0.992       .  S
C4129      C4130   1.404       .  A
C4129      C4134   1.403       .  A
C4129      H4139   1.083       .  S
C4130      C4131   1.411       .  A
C4130      C4135   1.496       .  S
C4131      C4132   1.405       .  A
C4131      O4136   1.372       .  S
C4132      C4133   1.409       .  A
C4132      H4137   1.083       .  S
C4133      C4134   1.415       .  A
C4134      O4138   1.371       .  S
C4135      C4140   1.409       .  A
C4135      C4144   1.410       .  A
O4136      H4152   0.991       .  S
O4138      H4149   0.993       .  S
C4140      C4141   1.400       .  A
C4140      O4145   1.372       .  S
C4141      C4142   1.404       .  A
C4141      H4146   1.084       .  S
C4142      C4143   1.408       .  A
C4143      C4144   1.409       .  A
C4143      O4147   1.371       .  S
C4144      H4148   1.083       .  S
O4145      H4150   0.991       .  S
O4147      H4151   0.991       .  S
C4153      C4154   1.403       .  A
C4153      C4158   1.399       .  A
C4153      H4163   1.084       .  S
C4154      C4155   1.409       .  A
C4154      C4159   1.483       .  S
C4155      C4156   1.401       .  A
C4155      O4160   1.372       .  S
C4156      C4157   1.405       .  A
C4156      H4161   1.084       .  S
C4157      C4158   1.410       .  A
C4158      O4162   1.372       .  S
C4159      C4164   1.408       .  A
C4159      C4168   1.401       .  A
O4160      H4176   0.993       .  S
O4162      H4173   0.992       .  S
C4164      C4165   1.402       .  A
C4164      O4169   1.372       .  S
C4165      C4166   1.408       .  A
C4165      H4170   1.083       .  S
C4166      C4167   1.413       .  A
C4167      C4168   1.399       .  A
C4167      O4171   1.371       .  S
C4168      H4172   1.084       .  S
O4169      H4174   0.992       .  S
O4171      H4175   0.993       .  S
C4177      C4178   1.403       .  A
C4177      C4182   1.400       .  A
C4177      H4187   1.084       .  S
C4178      C4179   1.410       .  A
C4178      C4183   1.489       .  S
C4179      C4180   1.404       .  A
C4179      O4184   1.372       .  S
C4180      C4181   1.408       .  A
C4180      H4185   1.083       .  S
C4181      C4182   1.413       .  A
C4182      O4186   1.372       .  S
C4183      C4188   1.410       .  A
C4183      C4192   1.405       .  A
O4184      H4200   0.992       .  S
O4186      H4197   0.992       .  S
C4188      C4189   1.398       .  A
C4188      O4193   1.372       .  S
C4189      C4190   1.403       .  A
C4189      H4194   1.084       .  S
C4190      C4191   1.412       .  A
C4191      C4192   1.404       .  A
C4191      O4195   1.372       .  S
C4192      H4196   1.083       .  S
O4193      H4198   0.992       .  S
O4195      H4199   0.992       .  S
C4201      C4202   1.402       .  A
C4201      C4206   1.398       .  A
C4201      H4211   1.084       .  S
C4202      C4203   1.412       .  A
C4202      C4207   1.490       .  S
C4203      C4204   1.407       .  A
C4203      O4208   1.371       .  S
C4204      C4205   1.406       .  A
C4204      H4209   1.083       .  S
C4205      C4206   1.412       .  A
C4206      O4210   1.372       .  S
C4207      C4212   1.409       .  A
C4207      C4216   1.408       .  A
O4208      H4224   0.992       .  S
O4210      H4221   0.992       .  S
C4212      C4213   1.396       .  A
C4212      O4217   1.372       .  S
C4213      C4214   1.403       .  A
C4213      H4218   1.084       .  S
C4214      C4215   1.408       .  A
C4215      C4216   1.408       .  A
C4215      O4219   1.371       .  S
C4216      H4220   1.083       .  S
O4217      H4222   0.992       .  S
O4219      H4223   0.990       .  S
C4225      C4226   1.409       .  A
C4225      C4230   1.406       .  A
C4225      H4235   1.083       .  S
C4226      C4227   1.409       .  A
C4226      C4231   1.490       .  S
C4227      C4228   1.396       .  A
C4227      O4232   1.372       .  S
C4228      C4229   1.403       .  A
C4228      H4233   1.084       .  S
C4229      C4230   1.407       .  A
C4230      O4234   1.371       .  S
C4231      C4236   1.409       .  A
C4231      C4240   1.404       .  A
O4232      H4248   0.992       .  S
O4234      H4245   0.991       .  S
C4236      C4237   1.401       .  A
C4236      O4241   1.372       .  S
C4237      C4238   1.408       .  A
C4237      H4242   1.083       .  S
C4238      C4239   1.414       .  A
C4239      C4240   1.402       .  A
C4239      O4243   1.371       .  S
C4240      H4244   1.083       .  S
O4241      H4246   0.992       .  S
O4243      H4247   0.992       .  S
C4249      C4250   1.403       .  A
C4249      C4254   1.396       .  A
C4249      H4259   1.084       .  S
C4250      C4251   1.407       .  A
C4250      C4255   1.478       .  S
C4251      C4252   1.397       .  A
C4251      O4256   1.372       .  S
C4252      C4253   1.405       .  A
C4252      H4257   1.083       .  S
C4253      C4254   1.410       .  A
C4254      O4258   1.372       .  S
C4255      C4260   1.408       .  A
C4255      C4264   1.403       .  A
O4256      H4272   0.991       .  S
O4258      H4269   0.993       .  S
C4260      C4261   1.395       .  A
C4260      O4265   1.372       .  S
C4261      C4262   1.404       .  A
C4261      H4266   1.084       .  S
C4262      C4263   1.410       .  A
C4263      C4264   1.398       .  A
C4263      O4267   1.371       .  S
C4264      H4268   1.083       .  S
O4265      H4270   0.992       .  S
O4267      H4271   0.992       .  S
C4273      C4274   1.405       .  A
C4273      C4278   1.402       .  A
C4273      H4283   1.084       .  S
C4274      C4275   1.407       .  A
C4274      C4279   1.480       .  S
C4275      C4276   1.394       .  A
C4275      O4280   1.372       .  S
C4276      C4277   1.402       .  A
C4276      H4281   1.084       .  S
C4277      C4278   1.410       .  A
C4278      O4282   1.372       .  S
C4279      C4284   1.406       .  A
C4279      C4288   1.404       .  A
O4280      H4296   0.992       .  S
O4282      H4293   0.991       .  S
C4284      C4285   1.397       .  A
C4284      O4289   1.372       .  S
C4285      C4286   1.406       .  A
C4285      H4290   1.083       .  S
C4286      C4287   1.411       .  A
C4287      C4288   1.397       .  A
C4287      O4291   1.372       .  S
C4288      H4292   1.084       .  S
O4289      H4294   0.991       .  S
O4291      H4295   0.992       .  S
C4297      C4298   1.409       .  A
C4297      C4302   1.409       .  A
C4297      H4307   1.083       .  S
C4298      C4299   1.407       .  A
C4298      C4303   1.489       .  S
C4299      C4300   1.397       .  A
C4299      O4304   1.372       .  S
C4300      C4301   1.404       .  A
C4300      H4305   1.084       .  S
C4301      C4302   1.409       .  A
C4302      O4306   1.371       .  S
C4303      C4308   1.407       .  A
C4303      C4312   1.404       .  A
O4304      H4320   0.993       .  S
O4306      H4317   0.993       .  S
C4308      C4309   1.403       .  A
C4308      O4313   1.372       .  S
C4309      C4310   1.408       .  A
C4309      H4314   1.083       .  S
C4310      C4311   1.416       .  A
C4311      C4312   1.404       .  A
C4311      O4315   1.371       .  S
C4312      H4316   1.084       .  S
O4313      H4318   0.991       .  S
O4315      H4319   0.993       .  S
C4321      C4322   1.406       .  A
C4321      C4326   1.402       .  A
C4321      H4331   1.083       .  S
C4322      C4323   1.412       .  A
C4322      C4327   1.493       .  S
C4323      C4324   1.405       .  A
C4323      O4328   1.374       .  S
C4324      C4325   1.401       .  A
C4324      H4329   1.084       .  S
C4325      C4326   1.406       .  A
C4326      O4330   1.371       .  S
C4327      C4332   1.413       .  A
C4327      C4336   1.405       .  A
O4328      H4344   0.990       .  S
O4330      H4341   0.992       .  S
C4332      C4333   1.401       .  A
C4332      O4337   1.371       .  S
C4333      C4334   1.404       .  A
C4333      H4338   1.084       .  S
C4334      C4335   1.413       .  A
C4335      C4336   1.405       .  A
C4335      O4339   1.372       .  S
C4336      H4340   1.083       .  S
O4337      H4342   0.991       .  S
O4339      H4343   0.993       .  S
C4345      C4346   1.410       .  A
C4345      C4350   1.408       .  A
C4345      H4355   1.083       .  S
C4346      C4347   1.413       .  A
C4346      C4351   1.501       .  S
C4347      C4348   1.399       .  A
C4347      O4352   1.372       .  S
C4348      C4349   1.403       .  A
C4348      H4353   1.084       .  S
C4349      C4350   1.407       .  A
C4350      O4354   1.371       .  S
C4351      C4356   1.415       .  A
C4351      C4360   1.404       .  A
O4352      H4368   0.992       .  S
O4354      H4365   0.991       .  S
C4356      C4357   1.407       .  A
C4356      O4361   1.371       .  S
C4357      C4358   1.406       .  A
C4357      H4362   1.083       .  S
C4358      C4359   1.416       .  A
C4359      C4360   1.402       .  A
C4359      O4363   1.372       .  S
C4360      H4364   1.083       .  S
O4361      H4366   0.991       .  S
O4363      H4367   0.993       .  S
C4369      C4370   1.403       .  A
C4369      C4374   1.399       .  A
C4369      H4379   1.084       .  S
C4370      C4371   1.410       .  A
C4370      C4375   1.484       .  S
C4371      C4372   1.404       .  A
C4371      O4376   1.371       .  S
C4372      C4373   1.403       .  A
C4372      H4377   1.083       .  S
C4373      C4374   1.407       .  A
C4374      O4378   1.371       .  S
C4375      C4380   1.408       .  A
C4375      C4384   1.405       .  A
O4376      H4392   0.990       .  S
O4378      H4389   0.992       .  S
C4380      C4381   1.400       .  A
C4380      O4385   1.372       .  S
C4381      C4382   1.401       .  A
C4381      H4386   1.082       .  S
C4382      C4383   1.410       .  A
C4383      C4384   1.404       .  A
C4383      O4387   1.371       .  S
C4384      H4388   1.084       .  S
O4385      H4390   0.991       .  S
O4387      H4391   0.993       .  S
C4393      C4394   1.406       .  A
C4393      C4398   1.403       .  A
C4393      H4403   1.083       .  S
C4394      C4395   1.410       .  A
C4394      C4399   1.491       .  S
C4395      C4396   1.399       .  A
C4395      O4400   1.371       .  S
C4396      C4397   1.402       .  A
C4396      H4401   1.080       .  S
C4397      C4398   1.411       .  A
C4398      O4402   1.372       .  S
C4399      C4404   1.412       .  A
C4399      C4408   1.404       .  A
O4400      H4416   0.992       .  S
O4402      H4413   0.992       .  S
C4404      C4405   1.409       .  A
C4404      O4409   1.372       .  S
C4405      C4406   1.404       .  A
C4405      H4410   1.083       .  S
C4406      C4407   1.407       .  A
C4407      C4408   1.396       .  A
C4407      O4411   1.371       .  S
C4408      H4412   1.083       .  S
O4409      H4414   0.992       .  S
O4411      H4415   0.993       .  S
C4417      C4418   1.406       .  A
C4417      C4422   1.401       .  A
C4417      H4427   1.083       .  S
C4418      C4419   1.413       .  A
C4418      C4423   1.490       .  S
C4419      C4420   1.399       .  A
C4419      O4424   1.372       .  S
C4420      C4421   1.401       .  A
C4420      H4425   1.084       .  S
C4421      C4422   1.408       .  A
C4422      O4426   1.371       .  S
C4423      C4428   1.412       .  A
C4423      C4432   1.406       .  A
O4424      H4440   0.991       .  S
O4426      H4437   0.992       .  S
C4428      C4429   1.399       .  A
C4428      O4433   1.372       .  S
C4429      C4430   1.403       .  A
C4429      H4434   1.084       .  S
C4430      C4431   1.408       .  A
C4431      C4432   1.401       .  A
C4431      O4435   1.371       .  S
C4432      H4436   1.083       .  S
O4433      H4438   0.991       .  S
O4435      H4439   0.992       .  S
C4441      C4442   1.404       .  A
C4441      C4446   1.397       .  A
C4441      H4451   1.083       .  S
C4442      C4443   1.409       .  A
C4442      C4447   1.479       .  S
C4443      C4444   1.396       .  A
C4443      O4448   1.372       .  S
C4444      C4445   1.402       .  A
C4444      H4449   1.083       .  S
C4445      C4446   1.407       .  A
C4446      O4450   1.371       .  S
C4447      C4452   1.409       .  A
C4447      C4456   1.406       .  A
O4448      H4464   0.991       .  S
O4450      H4461   0.991       .  S
C4452      C4453   1.396       .  A
C4452      O4457   1.372       .  S
C4453      C4454   1.398       .  A
C4453      H4458   1.083       .  S
C4454      C4455   1.402       .  A
C4455      C4456   1.399       .  A
C4455      O4459   1.371       .  S
C4456      H4460   1.083       .  S
O4457      H4462   0.991       .  S
O4459      H4463   0.994       .  S
C4465      C4466   1.407       .  A
C4465      C4470   1.405       .  A
C4465      H4475   1.083       .  S
C4466      C4467   1.408       .  A
C4466      C4471   1.488       .  S
C4467      C4468   1.397       .  A
C4467      O4472   1.372       .  S
C4468      C4469   1.405       .  A
C4468      H4473   1.084       .  S
C4469      C4470   1.411       .  A
C4470      O4474   1.372       .  S
C4471      C4476   1.413       .  A
C4471      C4480   1.403       .  A
O4472      H4488   0.991       .  S
O4474      H4485   0.992       .  S
C4476      C4477   1.406       .  A
C4476      O4481   1.371       .  S
C4477      C4478   1.402       .  A
C4477      H4482   1.083       .  S
C4478      C4479   1.406       .  A
C4479      C4480   1.396       .  A
C4479      O4483   1.373       .  S
C4480      H4484   1.083       .  S
O4481      H4486   0.992       .  S
O4483      H4487   0.991       .  S
C4489      C4490   1.403       .  A
C4489      C4494   1.398       .  A
C4489      H4499   1.084       .  S
C4490      C4491   1.409       .  A
C4490      C4495   1.481       .  S
C4491      C4492   1.403       .  A
C4491      O4496   1.372       .  S
C4492      C4493   1.403       .  A
C4492      H4497   1.084       .  S
C4493      C4494   1.406       .  A
C4494      O4498   1.372       .  S
C4495      C4500   1.407       .  A
C4495      C4504   1.403       .  A
O4496      H4512   0.993       .  S
O4498      H4509   0.992       .  S
C4500      C4501   1.405       .  A
C4500      O4505   1.373       .  S
C4501      C4502   1.407       .  A
C4501      H4506   1.081       .  S
C4502      C4503   1.407       .  A
C4503      C4504   1.395       .  A
C4503      O4507   1.371       .  S
C4504      H4508   1.084       .  S
O4505      H4510   0.991       .  S
O4507      H4511   0.992       .  S
C4513      C4514   1.405       .  A
C4513      C4518   1.400       .  A
C4513      H4523   1.083       .  S
C4514      C4515   1.413       .  A
C4514      C4519   1.496       .  S
C4515      C4516   1.408       .  A
C4515      O4520   1.373       .  S
C4516      C4517   1.404       .  A
C4516      H4521   1.082       .  S
C4517      C4518   1.410       .  A
C4518      O4522   1.372       .  S
C4519      C4524   1.412       .  A
C4519      C4528   1.404       .  A
O4520      H4536   0.993       .  S
O4522      H4533   0.994       .  S
C4524      C4525   1.404       .  A
C4524      O4529   1.371       .  S
C4525      C4526   1.408       .  A
C4525      H4530   1.083       .  S
C4526      C4527   1.416       .  A
C4527      C4528   1.403       .  A
C4527      O4531   1.371       .  S
C4528      H4532   1.084       .  S
O4529      H4534   0.991       .  S
O4531      H4535   0.992       .  S
C4537      C4538   1.404       .  A
C4537      C4542   1.397       .  A
C4537      H4547   1.084       .  S
C4538      C4539   1.412       .  A
C4538      C4543   1.490       .  S
C4539      C4540   1.408       .  A
C4539      O4544   1.373       .  S
C4540      C4541   1.404       .  A
C4540      H4545   1.083       .  S
C4541      C4542   1.407       .  A
C4542      O4546   1.372       .  S
C4543      C4548   1.411       .  A
C4543      C4552   1.406       .  A
O4544      H4560   0.991       .  S
O4546      H4557   0.993       .  S
C4548      C4549   1.403       .  A
C4548      O4553   1.372       .  S
C4549      C4550   1.402       .  A
C4549      H4554   1.083       .  S
C4550      C4551   1.407       .  A
C4551      C4552   1.402       .  A
C4551      O4555   1.372       .  S
C4552      H4556   1.084       .  S
O4553      H4558   0.994       .  S
O4555      H4559   0.991       .  S
C4561      C4562   1.406       .  A
C4561      C4566   1.401       .  A
C4561      H4571   1.083       .  S
C4562      C4563   1.413       .  A
C4562      C4567   1.489       .  S
C4563      C4564   1.399       .  A
C4563      O4568   1.372       .  S
C4564      C4565   1.399       .  A
C4564      H4569   1.083       .  S
C4565      C4566   1.404       .  A
C4566      O4570   1.371       .  S
C4567      C4572   1.412       .  A
C4567      C4576   1.403       .  A
O4568      H4584   0.991       .  S
O4570      H4581   0.992       .  S
C4572      C4573   1.405       .  A
C4572      O4577   1.371       .  S
C4573      C4574   1.405       .  A
C4573      H4578   1.082       .  S
C4574      C4575   1.410       .  A
C4575      C4576   1.396       .  A
C4575      O4579   1.371       .  S
C4576      H4580   1.083       .  S
O4577      H4582   0.992       .  S
O4579      H4583   0.991       .  S
